2022-12-31T00:23:52,781  INFO Gbl:63 JVM: 17.0.1; Oracle Corporation; mixed mode, sharing; 64-bit
2022-12-31T00:23:52,782  INFO Gbl:67 OS: Windows 10; 10.0; amd64
2022-12-31T00:23:52,782  INFO Gbl:70 CPU cores: 8
2022-12-31T00:23:52,788  INFO Gbl:71 max. Memory: 994.0MB (1042284544B)
2022-12-31T00:23:52,789  INFO Gbl:109 MATSim-Build: r80b56afa925946d766cb91527373393989f56e81 (2022-04-11 15:06:39)
2022-12-31T00:23:52,791  INFO ControlerListenerManagerImpl:107 calling notifyStartup on org.matsim.guice.DependencyGraphControlerListener
2022-12-31T00:23:52,795  INFO MemoryObserver:41 used RAM: 25 MB  free: 14 MB  total: 40 MB
2022-12-31T00:23:52,915  INFO ControlerListenerManagerImpl:107 calling notifyStartup on org.matsim.counts.CountsControlerListener
2022-12-31T00:23:52,916  INFO ControlerListenerManagerImpl:107 calling notifyStartup on org.matsim.analysis.ModeStatsControlerListener
2022-12-31T00:23:52,917  INFO ControlerListenerManagerImpl:107 calling notifyStartup on org.matsim.analysis.ScoreStatsControlerListener
2022-12-31T00:23:52,917  INFO ControlerListenerManagerImpl:110 all ControlerStartupListeners called.
2022-12-31T00:23:52,918  INFO ControlerUtils:79 config dump before iterations start
2022-12-31T00:23:52,931  INFO ControlerUtils:83 

<?xml version="1.0" encoding="UTF-8"?>
<!DOCTYPE config SYSTEM "http://www.matsim.org/files/dtd/config_v2.dtd">
<config>
	<module name="JDEQSim" >
		<param name="carSize" value="7.5" />
		<param name="endTime" value="undefined" />
		<param name="flowCapacityFactor" value="1.0" />
		<param name="gapTravelSpeed" value="15.0" />
		<param name="minimumInFlowCapacity" value="1800.0" />
		<param name="squeezeTime" value="1800.0" />
		<param name="storageCapacityFactor" value="1.0" />
	</module>
	<module name="ReplanningAnnealer" >
		<!-- Activate the scaling of replanning modules using an annealing approach rather than fixed rates. -->
		<param name="activateAnnealingModule" value="false" />
	</module>
	<module name="TimeAllocationMutator" >
		<!-- Default:true; Defines whether time mutation changes an activity's duration. -->
		<param name="mutationAffectsDuration" value="true" />
		<!-- Default:1800.0; Defines how many seconds a time mutation can maximally shift a time. -->
		<param name="mutationRange" value="1800.0" />
	</module>
	<module name="changeMode" >
		<!-- Defines whether car availability is considered be considered or not. An agent has no car only if it has no license, or never access to a car. Default: true -->
		<param name="ignoreCarAvailability" value="true" />
		<!-- Defines the mode switch behavior. Possible values [fromAllModesToSpecifiedModes, fromSpecifiedModesToSpecifiedModes] Default: fromSpecifiedModesToSpecifiedModes. -->
		<param name="modeSwitchBehavior" value="fromSpecifiedModesToSpecifiedModes" />
		<!-- Defines all the modes available, including chain-based modes, seperated by commas -->
		<param name="modes" value="car,pt" />
	</module>
	<module name="controler" >
		<!-- Compression algorithm to use when writing out data to files. Possible values: [none, gzip, lz4, zst] -->
		<param name="compressionType" value="gzip" />
		<!-- Sets whether graphs showing some analyses should automatically be generated during the simulation. The generation of graphs usually takes a small amount of time that does not have any weight in big simulations, but add a significant overhead in smaller runs or in test cases where the graphical output is not even requested. -->
		<param name="createGraphs" value="true" />
		<!-- true if at the end of a run, plans, network, config etc should be dumped to a file -->
		<param name="dumpDataAtEnd" value="true" />
		<!-- Default=false. If enabled, the router takes travel times needed for turning moves into account. Cannot be used if the (Fast)AStarLandmarks routing or TravelTimeCalculator.separateModes is enabled. -->
		<param name="enableLinkToLinkRouting" value="false" />
		<!-- Default=xml; Specifies the file format for writing events. Currently supported: [xml, pb, json]
		Multiple values can be specified separated by commas (','). -->
		<param name="eventsFileFormat" value="xml" />
		<!-- Default=0. First Iteration of a simulation. -->
		<param name="firstIteration" value="0" />
		<!-- Default=1000. Last Iteration of a simulation. -->
		<param name="lastIteration" value="10" />
		<!-- Defines which mobility simulation will be used. Currently supported: qsim JDEQSim hermes 
		Depending on the chosen mobsim, you'll have to add additional config modules to configure the corresponding mobsim.
		For 'qsim', add a module 'qsim' to the config. -->
		<param name="mobsim" value="qsim" />
		<param name="outputDirectory" value="./output" />
		<!-- Possible values: failIfDirectoryExists, overwriteExistingFiles, deleteDirectoryIfExists -->
		<param name="overwriteFiles" value="failIfDirectoryExists" />
		<!-- The type of routing (least cost path) algorithm used, may have the values: [Dijkstra, AStarLandmarks, FastDijkstra, FastAStarLandmarks, SpeedyALT] -->
		<param name="routingAlgorithmType" value="AStarLandmarks" />
		<!-- An identifier for the current run which is used as prefix for output files and mentioned in output xml files etc. -->
		<param name="runId" value="null" />
		<!-- Comma-separated list of visualizer output file formats. `transims', `googleearth', and `otfvis'. -->
		<param name="snapshotFormat" value="" />
		<!-- iterationNumber % writeEventsInterval == 0 defines in which iterations events are written to a file. `0' disables events writing completely. -->
		<param name="writeEventsInterval" value="50" />
		<!-- iterationNumber % writePlansInterval == 0 defines (hopefully) in which iterations plans are written to a file. `0' disables plans writing completely.  Some plans in early iterations are always written -->
		<param name="writePlansInterval" value="50" />
		<!-- iterationNumber % writeSnapshotsInterval == 0 defines in which iterations snapshots are written to a file. `0' disables snapshots writing completely -->
		<param name="writeSnapshotsInterval" value="1" />
		<!-- iterationNumber % writeEventsInterval == 0 defines in which iterations trips CSV are written to a file. `0' disables trips writing completely. -->
		<param name="writeTripsInterval" value="50" />
	</module>
	<module name="counts" >
		<!-- Transport modes that will be respected for the counts comparison. 'car' is default, which includes also bussed from the pt simulation module. Use this parameter in combination with 'filterModes' = true! -->
		<param name="analyzedModes" value="car" />
		<!-- Specifies over how many iterations the link volumes should be averaged that are used for the counts comparison. Use 1 or 0 to only use the link volumes of a single iteration. This values cannot be larger than the value specified for writeCountsInterval -->
		<param name="averageCountsOverIterations" value="5" />
		<!-- factor by which to re-scale the simulated values.  necessary when simulation runs with something different from 100%.  needs to be adapted manually -->
		<param name="countsScaleFactor" value="1.0" />
		<!-- distance to distanceFilterCenterNode to include counting stations. The unit of distance is the Euclidean distance implied by the coordinate system -->
		<param name="distanceFilter" value="null" />
		<!-- node id for center node of distance filter -->
		<param name="distanceFilterCenterNode" value="null" />
		<!-- If true, link counts from legs performed on modes not included in the 'analyzedModes' parameter are ignored. -->
		<param name="filterModes" value="false" />
		<!-- The Coordinates Reference System in which the coordinates are expressed in the input file. At import, the coordinates will be converted to the coordinate system defined in "global", and willbe converted back at export. If not specified, no conversion happens. -->
		<param name="inputCRS" value="null" />
		<!-- input file name to counts package -->
		<param name="inputCountsFile" value="null" />
		<!-- possible values: `html', `kml', `txt', `all' -->
		<param name="outputformat" value="txt" />
		<!-- Specifies how often the counts comparison should be calculated and written. -->
		<param name="writeCountsInterval" value="10" />
	</module>
	<module name="facilities" >
		<!-- This defines how facilities should be created. Possible values: none fromFile setInScenario onePerActivityLinkInPlansFile onePerActivityLinkInPlansFileExceptWhenCoordinatesAreGiven onePerActivityLocationInPlansFile  -->
		<param name="facilitiesSource" value="none" />
		<!-- A prefix to be used for auto-generated IDs. -->
		<param name="idPrefix" value="f_auto_" />
		<!-- The Coordinates Reference System in which the coordinates are expressed in the input file. At import, the coordinates will be converted to the coordinate system defined in "global", and willbe converted back at export. If not specified, no conversion happens. -->
		<param name="inputCRS" value="null" />
		<param name="inputFacilitiesFile" value="null" />
		<param name="inputFacilityAttributesFile" value="null" />
		<param name="insistingOnUsingDeprecatedFacilitiesAttributeFile" value="false" />
	</module>
	<module name="global" >
		<param name="coordinateSystem" value="Atlantis" />
		<param name="defaultDelimiter" value=";" />
		<param name="insistingOnDeprecatedConfigVersion" value="true" />
		<!-- "global" number of threads.  This number is used, e.g., for replanning, but NOT in QSim.  This can typically be set to as many cores as you have available, or possibly even slightly more. -->
		<param name="numberOfThreads" value="2" />
		<param name="randomSeed" value="4711" />
	</module>
	<module name="hermes" >
		<!-- Simulation End Time -->
		<param name="endTime" value="30:00:00" />
		<param name="flowCapacityFactor" value="1.0" />
		<param name="mainMode" value="car" />
		<param name="storageCapacityFactor" value="1.0" />
		<!-- time in seconds.  Time after which the frontmost vehicle on a link is called `stuck' if it does not move. Set to Integer.MAX_VALUE to disable this behavior -->
		<param name="stuckTime" value="10" />
		<!-- treats PT as deterministic. PT vehicles will run with a steady speed. Should be used with separate network layers for PT and other network modes. -->
		<param name="useDeterministicPt" value="false" />
	</module>
	<module name="households" >
		<param name="inputFile" value="null" />
		<param name="inputHouseholdAttributesFile" value="null" />
		<param name="insistingOnUsingDeprecatedHouseholdsAttributeFile" value="false" />
	</module>
	<module name="linkStats" >
		<!-- Specifies over how many iterations the link volumes should be averaged that are used for the link statistics. Use 1 or 0 to only use the link volumes of a single iteration. This values cannot be larger than the value specified for writeLinkStatsInterval -->
		<param name="averageLinkStatsOverIterations" value="5" />
		<!-- Specifies how often the link stats should be calculated and written. Use 0 to disable the generation of link stats. -->
		<param name="writeLinkStatsInterval" value="50" />
	</module>
	<module name="network" >
		<!-- The Coordinates Reference System in which the coordinates are expressed in the input file. At import, the coordinates will be converted to the coordinate system defined in "global", and willbe converted back at export. If not specified, no conversion happens. -->
		<param name="inputCRS" value="null" />
		<param name="inputChangeEventsFile" value="null" />
		<param name="inputNetworkFile" value="network.xml" />
		<param name="laneDefinitionsFile" value="null" />
		<param name="timeVariantNetwork" value="false" />
	</module>
	<module name="parallelEventHandling" >
		<!-- Estimated number of events during mobsim run. An optional optimization hint for the framework. -->
		<param name="estimatedNumberOfEvents" value="null" />
		<!-- Size of the events Queue. Increase for very large scenarios -->
		<param name="eventsQueueSize" value="131072" />
		<!-- Number of threads for parallel events handler. _null_ means the framework decides by itself. 0 is currently not possible. -->
		<param name="numberOfThreads" value="null" />
		<!-- If enabled, each event handler is assigned to its own thread. Note that enabling this feature disabled the numberOfThreads option! This feature is still experimental! -->
		<param name="oneThreadPerHandler" value="false" />
		<!-- If enabled, it is ensured that all events that are created during a time step of the mobility simulation are processed before the next time step is simulated. E.g. neccessary when within-day replanning is used. -->
		<param name="synchronizeOnSimSteps" value="true" />
	</module>
	<module name="planCalcScore" >
		<!-- logit model scale parameter. default: 1.  Has name and default value for historical reasons (see Bryan Raney's phd thesis). -->
		<param name="BrainExpBeta" value="1.0" />
		<param name="PathSizeLogitBeta" value="1.0" />
		<!-- fraction of iterations at which MSA score averaging is started. The matsim theory department suggests to use this together with switching off choice set innovation (where a similar switch exists), but it has not been tested yet. -->
		<param name="fractionOfIterationsToStartScoreMSA" value="null" />
		<!-- new_score = (1-learningRate)*old_score + learningRate * score_from_mobsim.  learning rates close to zero emulate score averaging, but slow down initial convergence -->
		<param name="learningRate" value="1.0" />
		<!-- There used to be a plateau between duration=0 and duration=zeroUtilityDuration. This caused durations to evolve to zero once they were below zeroUtilityDuration, causing problems.  Only use this switch if you need to be backwards compatible with some old results.  (changed nov'13) -->
		<param name="usingOldScoringBelowZeroUtilityDuration" value="false" />
		<!-- write a plans file in each iteration directory which contains what each agent actually did, and the score it received. -->
		<param name="writeExperiencedPlans" value="false" />
		<parameterset type="scoringParameters" >
			<param name="earlyDeparture" value="-0.0" />
			<param name="lateArrival" value="-18.0" />
			<param name="marginalUtilityOfMoney" value="1.0" />
			<param name="performing" value="6.0" />
			<param name="subpopulation" value="null" />
			<param name="utilityOfLineSwitch" value="-1.0" />
			<param name="waiting" value="-0.0" />
			<param name="waitingPt" value="-6.0" />
			<parameterset type="activityParams" >
				<param name="activityType" value="dummy" />
				<param name="closingTime" value="undefined" />
				<param name="earliestEndTime" value="undefined" />
				<param name="latestStartTime" value="undefined" />
				<param name="minimalDuration" value="undefined" />
				<param name="openingTime" value="undefined" />
				<param name="priority" value="1.0" />
				<param name="scoringThisActivityAtAll" value="true" />
				<!-- typical duration of activity.  needs to be defined and non-zero.  in sec. -->
				<param name="typicalDuration" value="02:00:00" />
				<!-- method to compute score at typical duration.  Options: | uniform | relative | Use uniform for backwards compatibility (all activities same score; higher proba to drop long acts). -->
				<param name="typicalDurationScoreComputation" value="relative" />
			</parameterset>
			<parameterset type="activityParams" >
				<param name="activityType" value="car interaction" />
				<param name="closingTime" value="undefined" />
				<param name="earliestEndTime" value="undefined" />
				<param name="latestStartTime" value="undefined" />
				<param name="minimalDuration" value="undefined" />
				<param name="openingTime" value="undefined" />
				<param name="priority" value="1.0" />
				<param name="scoringThisActivityAtAll" value="false" />
				<param name="typicalDuration" value="undefined" />
				<param name="typicalDurationScoreComputation" value="relative" />
			</parameterset>
			<parameterset type="activityParams" >
				<param name="activityType" value="pt interaction" />
				<param name="closingTime" value="undefined" />
				<param name="earliestEndTime" value="undefined" />
				<param name="latestStartTime" value="undefined" />
				<param name="minimalDuration" value="undefined" />
				<param name="openingTime" value="undefined" />
				<param name="priority" value="1.0" />
				<param name="scoringThisActivityAtAll" value="false" />
				<param name="typicalDuration" value="undefined" />
				<param name="typicalDurationScoreComputation" value="relative" />
			</parameterset>
			<parameterset type="activityParams" >
				<param name="activityType" value="bike interaction" />
				<param name="closingTime" value="undefined" />
				<param name="earliestEndTime" value="undefined" />
				<param name="latestStartTime" value="undefined" />
				<param name="minimalDuration" value="undefined" />
				<param name="openingTime" value="undefined" />
				<param name="priority" value="1.0" />
				<param name="scoringThisActivityAtAll" value="false" />
				<param name="typicalDuration" value="undefined" />
				<param name="typicalDurationScoreComputation" value="relative" />
			</parameterset>
			<parameterset type="activityParams" >
				<param name="activityType" value="drt interaction" />
				<param name="closingTime" value="undefined" />
				<param name="earliestEndTime" value="undefined" />
				<param name="latestStartTime" value="undefined" />
				<param name="minimalDuration" value="undefined" />
				<param name="openingTime" value="undefined" />
				<param name="priority" value="1.0" />
				<param name="scoringThisActivityAtAll" value="false" />
				<param name="typicalDuration" value="undefined" />
				<param name="typicalDurationScoreComputation" value="relative" />
			</parameterset>
			<parameterset type="activityParams" >
				<param name="activityType" value="taxi interaction" />
				<param name="closingTime" value="undefined" />
				<param name="earliestEndTime" value="undefined" />
				<param name="latestStartTime" value="undefined" />
				<param name="minimalDuration" value="undefined" />
				<param name="openingTime" value="undefined" />
				<param name="priority" value="1.0" />
				<param name="scoringThisActivityAtAll" value="false" />
				<param name="typicalDuration" value="undefined" />
				<param name="typicalDurationScoreComputation" value="relative" />
			</parameterset>
			<parameterset type="activityParams" >
				<param name="activityType" value="other interaction" />
				<param name="closingTime" value="undefined" />
				<param name="earliestEndTime" value="undefined" />
				<param name="latestStartTime" value="undefined" />
				<param name="minimalDuration" value="undefined" />
				<param name="openingTime" value="undefined" />
				<param name="priority" value="1.0" />
				<param name="scoringThisActivityAtAll" value="false" />
				<param name="typicalDuration" value="undefined" />
				<param name="typicalDurationScoreComputation" value="relative" />
			</parameterset>
			<parameterset type="activityParams" >
				<param name="activityType" value="walk interaction" />
				<param name="closingTime" value="undefined" />
				<param name="earliestEndTime" value="undefined" />
				<param name="latestStartTime" value="undefined" />
				<param name="minimalDuration" value="undefined" />
				<param name="openingTime" value="undefined" />
				<param name="priority" value="1.0" />
				<param name="scoringThisActivityAtAll" value="false" />
				<param name="typicalDuration" value="undefined" />
				<param name="typicalDurationScoreComputation" value="relative" />
			</parameterset>
			<parameterset type="activityParams" >
				<param name="activityType" value="h" />
				<param name="closingTime" value="undefined" />
				<param name="earliestEndTime" value="undefined" />
				<param name="latestStartTime" value="undefined" />
				<param name="minimalDuration" value="08:00:00" />
				<param name="openingTime" value="undefined" />
				<param name="priority" value="1.0" />
				<param name="scoringThisActivityAtAll" value="true" />
				<param name="typicalDuration" value="12:00:00" />
				<param name="typicalDurationScoreComputation" value="relative" />
			</parameterset>
			<parameterset type="activityParams" >
				<param name="activityType" value="w" />
				<param name="closingTime" value="18:00:00" />
				<param name="earliestEndTime" value="undefined" />
				<param name="latestStartTime" value="09:00:00" />
				<param name="minimalDuration" value="06:00:00" />
				<param name="openingTime" value="07:00:00" />
				<param name="priority" value="1.0" />
				<param name="scoringThisActivityAtAll" value="true" />
				<param name="typicalDuration" value="08:00:00" />
				<param name="typicalDurationScoreComputation" value="relative" />
			</parameterset>
			<parameterset type="activityParams" >
				<param name="activityType" value="bicycle interaction" />
				<param name="closingTime" value="undefined" />
				<param name="earliestEndTime" value="undefined" />
				<param name="latestStartTime" value="undefined" />
				<param name="minimalDuration" value="undefined" />
				<param name="openingTime" value="undefined" />
				<param name="priority" value="1.0" />
				<param name="scoringThisActivityAtAll" value="false" />
				<param name="typicalDuration" value="undefined" />
				<param name="typicalDurationScoreComputation" value="relative" />
			</parameterset>
			<parameterset type="activityParams" >
				<param name="activityType" value="ride interaction" />
				<param name="closingTime" value="undefined" />
				<param name="earliestEndTime" value="undefined" />
				<param name="latestStartTime" value="undefined" />
				<param name="minimalDuration" value="undefined" />
				<param name="openingTime" value="undefined" />
				<param name="priority" value="1.0" />
				<param name="scoringThisActivityAtAll" value="false" />
				<param name="typicalDuration" value="undefined" />
				<param name="typicalDurationScoreComputation" value="relative" />
			</parameterset>
			<parameterset type="modeParams" >
				<!-- [utils] alternative-specific constant.  Normally per trip, but that is probably buggy for multi-leg trips. -->
				<param name="constant" value="0.0" />
				<!-- [unit_of_money/day] Fixed cost of mode, per day. -->
				<param name="dailyMonetaryConstant" value="0.0" />
				<!-- [utils] daily utility constant. default=0 to be backwards compatible -->
				<param name="dailyUtilityConstant" value="0.0" />
				<!-- [utils/m] utility of traveling (e.g. walking or driving) per m, normally negative.  this is on top of the time (dis)utility. -->
				<param name="marginalUtilityOfDistance_util_m" value="0.0" />
				<!-- [utils/hr] additional marginal utility of traveling.  normally negative.  this comes on top of the opportunity cost of time -->
				<param name="marginalUtilityOfTraveling_util_hr" value="-6.0" />
				<param name="mode" value="car" />
				<!-- [unit_of_money/m] conversion of distance into money. Normally negative. -->
				<param name="monetaryDistanceRate" value="0.0" />
			</parameterset>
			<parameterset type="modeParams" >
				<param name="constant" value="0.0" />
				<param name="dailyMonetaryConstant" value="0.0" />
				<param name="dailyUtilityConstant" value="0.0" />
				<param name="marginalUtilityOfDistance_util_m" value="0.0" />
				<param name="marginalUtilityOfTraveling_util_hr" value="-6.0" />
				<param name="mode" value="pt" />
				<param name="monetaryDistanceRate" value="0.0" />
			</parameterset>
			<parameterset type="modeParams" >
				<param name="constant" value="0.0" />
				<param name="dailyMonetaryConstant" value="0.0" />
				<param name="dailyUtilityConstant" value="0.0" />
				<param name="marginalUtilityOfDistance_util_m" value="0.0" />
				<param name="marginalUtilityOfTraveling_util_hr" value="-6.0" />
				<param name="mode" value="walk" />
				<param name="monetaryDistanceRate" value="0.0" />
			</parameterset>
			<parameterset type="modeParams" >
				<param name="constant" value="0.0" />
				<param name="dailyMonetaryConstant" value="0.0" />
				<param name="dailyUtilityConstant" value="0.0" />
				<param name="marginalUtilityOfDistance_util_m" value="0.0" />
				<param name="marginalUtilityOfTraveling_util_hr" value="-6.0" />
				<param name="mode" value="bike" />
				<param name="monetaryDistanceRate" value="0.0" />
			</parameterset>
			<parameterset type="modeParams" >
				<param name="constant" value="0.0" />
				<param name="dailyMonetaryConstant" value="0.0" />
				<param name="dailyUtilityConstant" value="0.0" />
				<param name="marginalUtilityOfDistance_util_m" value="0.0" />
				<param name="marginalUtilityOfTraveling_util_hr" value="-6.0" />
				<param name="mode" value="ride" />
				<param name="monetaryDistanceRate" value="0.0" />
			</parameterset>
			<parameterset type="modeParams" >
				<param name="constant" value="0.0" />
				<param name="dailyMonetaryConstant" value="0.0" />
				<param name="dailyUtilityConstant" value="0.0" />
				<param name="marginalUtilityOfDistance_util_m" value="0.0" />
				<param name="marginalUtilityOfTraveling_util_hr" value="-6.0" />
				<param name="mode" value="other" />
				<param name="monetaryDistanceRate" value="0.0" />
			</parameterset>
			<parameterset type="modeParams" >
				<param name="constant" value="0.0" />
				<param name="dailyMonetaryConstant" value="0.0" />
				<param name="dailyUtilityConstant" value="0.0" />
				<param name="marginalUtilityOfDistance_util_m" value="0.0" />
				<param name="marginalUtilityOfTraveling_util_hr" value="-6.0" />
				<param name="mode" value="bicycle" />
				<param name="monetaryDistanceRate" value="0.0" />
			</parameterset>
		</parameterset>
	</module>
	<module name="plans" >
		<!-- String: minOfDurationAndEndTime tryEndTimeThenDuration endTimeOnly. Anything besides minOfDurationAndEndTime will internally use a different (simpler) version of the TimeAllocationMutator. -->
		<param name="activityDurationInterpretation" value="tryEndTimeThenDuration" />
		<!-- Possible values: reject, useMainModeIdentifier -->
		<param name="handlingOfPlansWithoutRoutingMode" value="reject" />
		<!-- The Coordinates Reference System in which the coordinates are expressed in the input file. At import, the coordinates will be converted to the coordinate system defined in "global", and willbe converted back at export. If not specified, no conversion happens. -->
		<param name="inputCRS" value="null" />
		<param name="inputPersonAttributesFile" value="null" />
		<param name="inputPlansFile" value="plans.xml" />
		<param name="insistingOnUsingDeprecatedPersonAttributeFile" value="false" />
		<!-- Defines how routes are stored in memory. Currently supported: LinkNetworkRoute, CompressedNetworkRoute. -->
		<param name="networkRouteType" value="LinkNetworkRoute" />
		<!-- (not tested) will remove plan attributes that are presumably not used, such as activityStartTime. default=false. Use with Caution! -->
		<param name="removingUnnecessaryPlanAttributes" value="false" />
		<!-- Defines how departure times are interpreted in rerouting applications. If set to 'ignoreDelays', the departure time of a trip when routing along a plan will always be the nominal (plan-based) activity end time. If set to 'shiftActivityEndTimes', routing along a plan will accumulate travel times and shift activity end times if necessary -->
		<param name="tripDurationHandling" value="ignoreDelays" />
	</module>
	<module name="planscalcroute" >
		<!-- Defines how access and egress to main mode is simulated. Either of [none, accessEgressModeToLink, walkConstantTimeToLink, accessEgressModeToLinkPlusTimeConstant], Current default=none which means no access or egress trips are simulated. -->
		<param name="accessEgressType" value="none" />
		<!-- Some typical teleportation routing params are set by default, such as for walk and bike.  Setting this switch to "true" will clear them.  Note that this will also clear settings for helper modes such as for non_network_walk -->
		<param name="clearDefaultTeleportedModeParams" value="false" />
		<!-- All the modes for which the router is supposed to generate network routes (like car) -->
		<param name="networkModes" value="car,bicycle" />
		<!-- strength of the randomness for the utility of money in routing under toll.  Leads to Pareto-optimal route with randomly drawn money-vs-other-attributes tradeoff. Technically the width parameter of a log-normal distribution. 3.0 seems to be a good value.  -->
		<param name="routingRandomness" value="3.0" />
		<parameterset type="teleportedModeParameters" >
			<param name="beelineDistanceFactor" value="1.3" />
			<param name="mode" value="bike" />
			<!-- Free-speed factor for a teleported mode. Travel time = teleportedModeFreespeedFactor * <freespeed car travel time>. Insert a line like this for every such mode. Please do not set teleportedModeFreespeedFactor as well as teleportedModeSpeed for the same mode, but if you do, +teleportedModeFreespeedFactor wins over teleportedModeSpeed. -->
			<param name="teleportedModeFreespeedFactor" value="null" />
			<!-- Speed for a teleported mode. Travel time = (<beeline distance> * beelineDistanceFactor) / teleportedModeSpeed. Insert a line like this for every such mode. -->
			<param name="teleportedModeSpeed" value="4.166666666666667" />
		</parameterset>
		<parameterset type="teleportedModeParameters" >
			<param name="beelineDistanceFactor" value="1.3" />
			<param name="mode" value="walk" />
			<param name="teleportedModeFreespeedFactor" value="null" />
			<param name="teleportedModeSpeed" value="0.8333333333333333" />
		</parameterset>
		<parameterset type="teleportedModeParameters" >
			<param name="beelineDistanceFactor" value="1.3" />
			<param name="mode" value="non_network_walk" />
			<param name="teleportedModeFreespeedFactor" value="null" />
			<param name="teleportedModeSpeed" value="0.8333333333333333" />
		</parameterset>
		<parameterset type="teleportedModeParameters" >
			<param name="beelineDistanceFactor" value="1.3" />
			<param name="mode" value="ride" />
			<param name="teleportedModeFreespeedFactor" value="1.0" />
			<param name="teleportedModeSpeed" value="null" />
		</parameterset>
		<parameterset type="teleportedModeParameters" >
			<param name="beelineDistanceFactor" value="1.3" />
			<param name="mode" value="pt" />
			<param name="teleportedModeFreespeedFactor" value="2.0" />
			<param name="teleportedModeSpeed" value="null" />
		</parameterset>
	</module>
	<module name="ptCounts" >
		<!-- factor by which to re-scale the simulated values.  necessary when simulation runs with something different from 100%.  needs to be adapted manually -->
		<param name="countsScaleFactor" value="1.0" />
		<!-- distance to distanceFilterCenterNode to include counting stations. The unit of distance is the Euclidean distance implied by the coordinate system -->
		<param name="distanceFilter" value="null" />
		<!-- node id for center node of distance filter -->
		<param name="distanceFilterCenterNode" value="null" />
		<!-- input file containing the alighting (getting off) counts for pt -->
		<param name="inputAlightCountsFile" value="null" />
		<!-- input file containing the boarding (getting on) counts for pt -->
		<param name="inputBoardCountsFile" value="null" />
		<!-- input file containing the occupancy counts for pt -->
		<param name="inputOccupancyCountsFile" value="null" />
		<!-- possible values: `html', `kml', `txt', `all' -->
		<param name="outputformat" value="null" />
		<!-- every how many iterations (starting with 0) counts comparisons are generated -->
		<param name="ptCountsInterval" value="10" />
	</module>
	<module name="qsim" >
		<param name="endTime" value="undefined" />
		<!-- If set to withLinkAttributes snapshots will only be generated for links which include generateSnapshotForLink as attribute key. Default is no filtering. -->
		<param name="filterSnapshots" value="no" />
		<param name="flowCapacityFactor" value="1.0" />
		<!-- decides if waiting vehicles enter the network after or before the already driving vehicles were moved. Default: false -->
		<param name="insertingWaitingVehiclesBeforeDrivingVehicles" value="true" />
		<!-- If link dynamics is set as SeepageQ, set to false if all seep modes should perform seepage. Default is true (better option). -->
		<param name="isRestrictingSeepage" value="true" />
		<!-- If link dynamics is set as SeepageQ, set to true if seep mode do not consumes any space on the link. Default is false. -->
		<param name="isSeepModeStorageFree" value="false" />
		<!-- default: FIFO; options: FIFO PassingQ SeepageQ -->
		<param name="linkDynamics" value="PassingQ" />
		<!-- The (initial) width of the links of the network. Use positive floating point values. This is used only for visualisation. -->
		<param name="linkWidth" value="30.0" />
		<!-- [comma-separated list] Defines which modes are congested modes. Technically, these are the modes that the departure handler of the netsimengine handles.  Effective cell size, effective lane width, flow capacity factor, and storage capacity factor need to be set with diligence.  Need to be vehicular modes to make sense. -->
		<param name="mainMode" value="bicycle,car" />
		<!-- Shortens a link in the visualization, i.e. its start and end point are moved into towards the center. Does not affect traffic flow.  -->
		<param name="nodeOffset" value="0.0" />
		<!-- Number of threads used for the QSim.  Note that this setting is independent from the "global" threads setting.  In contrast to earlier versions, the non-parallel special version is no longer there. -->
		<param name="numberOfThreads" value="1" />
		<!-- Boolean. `true': stuck vehicles are removed, aborting the plan; `false': stuck vehicles are forced into the next link. `false' is probably the better choice. -->
		<param name="removeStuckVehicles" value="false" />
		<!-- If link dynamics is set as SeepageQ, set a seep mode. Default is bike. -->
		<param name="seepMode" value="bike" />
		<!-- Possible values: minOfEndtimeAndMobsimFinished, onlyUseEndtime -->
		<param name="simEndtimeInterpretation" value="null" />
		<!-- Options: maxOfStarttimeAndEarliestActivityEnd onlyUseStarttime  -->
		<param name="simStarttimeInterpretation" value="maxOfStarttimeAndEarliestActivityEnd" />
		<!-- snapshotStyle. One of: equiDist queue withHoles withHolesAndShowHoles kinematicWaves  -->
		<param name="snapshotStyle" value="equiDist" />
		<param name="snapshotperiod" value="00:00:00" />
		<param name="startTime" value="undefined" />
		<param name="storageCapacityFactor" value="1.0" />
		<!-- time in seconds.  Time after which the frontmost vehicle on a link is called `stuck' if it does not move. -->
		<param name="stuckTime" value="10.0" />
		<param name="timeStepSize" value="00:00:01" />
		<!-- options: queue withHoles kinematicWaves  -->
		<param name="trafficDynamics" value="kinematicWaves" />
		<!-- Set this parameter to true if lanes should be used, false if not. -->
		<param name="useLanes" value="false" />
		<!-- If a route does not reference a vehicle, agents will use the vehicle with the same id as their own. -->
		<param name="usePersonIdForMissingVehicleId" value="true" />
		<!-- If false, the qsim accumulates fractional flows up to one flow unit in every time step.  If true, flows are updated only if an agent wants to enter the link or an agent is added to buffer. Default is true. -->
		<param name="usingFastCapacityUpdate" value="true" />
		<!-- Defines what happens if an agent wants to depart, but the specified vehicle is not available. One of: teleport wait exception  -->
		<param name="vehicleBehavior" value="teleport" />
		<!-- If vehicles should all be the same default vehicle, or come from the vehicles file, or something else.  Possible values:  defaultVehicle modeVehicleTypesFromVehiclesData fromVehiclesData -->
		<param name="vehiclesSource" value="modeVehicleTypesFromVehiclesData" />
	</module>
	<module name="strategy" >
		<!-- the external executable will be called with a config file as argument.  This is the pathname to a possible skeleton config, to which additional information will be added.  Can be null. -->
		<param name="ExternalExeConfigTemplate" value="null" />
		<!-- time out value (in seconds) after which matsim will consider the external strategy as failed -->
		<param name="ExternalExeTimeOut" value="3600" />
		<!-- root directory for temporary files generated by the external executable. Provided as a service; I don't think this is used by MATSim. -->
		<param name="ExternalExeTmpFileRootDir" value="null" />
		<!-- fraction of iterations where innovative strategies are switched off.  Something like 0.8 should be good.  E.g. if you run from iteration 400 to iteration 500, innovation is switched off at iteration 480 -->
		<param name="fractionOfIterationsToDisableInnovation" value="Infinity" />
		<!-- maximum number of plans per agent.  ``0'' means ``infinity''.  Currently (2010), ``5'' is a good number -->
		<param name="maxAgentPlanMemorySize" value="5" />
		<!-- strategyName of PlanSelector for plans removal.  Possible defaults: WorstPlanSelector SelectRandom SelectExpBetaForRemoval ChangeExpBetaForRemoval PathSizeLogitSelectorForRemoval . The current default, WorstPlanSelector is not a good choice from a discrete choice theoretical perspective. Alternatives, however, have not been systematically tested. kai, feb'12 -->
		<param name="planSelectorForRemoval" value="WorstPlanSelector" />
		<parameterset type="strategysettings" >
			<!-- iteration after which strategy will be disabled.  most useful for ``innovative'' strategies (new routes, new times, ...). Normally, better use fractionOfIterationsToDisableInnovation -->
			<param name="disableAfterIteration" value="-1" />
			<!-- path to external executable (if applicable) -->
			<param name="executionPath" value="null" />
			<!-- strategyName of strategy.  Possible default names: SelectRandom BestScore KeepLastSelected ChangeExpBeta SelectExpBeta SelectPathSizeLogit      (selectors), ReRouteTimeAllocationMutatorTimeAllocationMutator_ReRouteChangeSingleTripModeChangeTripModeSubtourModeChoice (innovative strategies). -->
			<param name="strategyName" value="BestScore" />
			<!-- subpopulation to which the strategy applies. "null" refers to the default population, that is, the set of persons for which no explicit subpopulation is defined (ie no subpopulation attribute) -->
			<param name="subpopulation" value="null" />
			<!-- weight of a strategy: for each agent, a strategy will be selected with a probability proportional to its weight -->
			<param name="weight" value="0.9" />
		</parameterset>
		<parameterset type="strategysettings" >
			<param name="disableAfterIteration" value="-1" />
			<param name="executionPath" value="null" />
			<param name="strategyName" value="ReRoute" />
			<param name="subpopulation" value="null" />
			<param name="weight" value="0.1" />
		</parameterset>
	</module>
	<module name="subtourModeChoice" >
		<!-- Only for backwards compatibility.  Defines if only trips from modes list should change mode, or all trips.  Options: fromAllModesToSpecifiedModes fromSpecifiedModesToSpecifiedModes  -->
		<param name="behavior" value="fromSpecifiedModesToSpecifiedModes" />
		<!-- Defines the chain-based modes, seperated by commas -->
		<param name="chainBasedModes" value="car,bike" />
		<!-- Defines whether car availability must be considered or not. A agent has no car only if it has no license, or never access to a car -->
		<param name="considerCarAvailability" value="false" />
		<!-- Defines all the modes available, including chain-based modes, seperated by commas -->
		<param name="modes" value="car,pt,bike,walk" />
	</module>
	<module name="transit" >
		<!-- The Coordinates Reference System in which the coordinates are expressed in the input file. At import, the coordinates will be converted to the coordinate system defined in "global", and willbe converted back at export. If not specified, no conversion happens. -->
		<param name="inputScheduleCRS" value="null" />
		<param name="insistingOnUsingDeprecatedAttributeFiles" value="false" />
		<!-- The type of transit routing algorithm used, may have the values: [DijkstraBased, SwissRailRaptor] -->
		<param name="routingAlgorithmType" value="SwissRailRaptor" />
		<!-- Optional input file containing additional attributes for transit lines, stored as ObjectAttributes. -->
		<param name="transitLinesAttributesFile" value="null" />
		<!-- Comma-separated list of transportation modes that are handled as transit. Defaults to 'pt'. -->
		<param name="transitModes" value="pt" />
		<!-- Input file containing the transit schedule to be simulated. -->
		<param name="transitScheduleFile" value="null" />
		<!-- Optional input file containing additional attributes for transit stop facilities, stored as ObjectAttributes. -->
		<param name="transitStopsAttributesFile" value="null" />
		<!-- Set this parameter to true if transit should be simulated, false if not. -->
		<param name="useTransit" value="false" />
		<param name="usingTransitInMobsim" value="true" />
		<!-- Input file containing the vehicles used by the departures in the transit schedule. -->
		<param name="vehiclesFile" value="null" />
	</module>
	<module name="transitRouter" >
		<!-- additional time the router allocates when a line switch happens. Can be interpreted as a 'safety' time that agents need to safely transfer from one line to another -->
		<param name="additionalTransferTime" value="0.0" />
		<!-- Factor with which direct walk generalized cost is multiplied before it is compared to the pt generalized cost.  Set to a very high value to reduce direct walk results. -->
		<param name="directWalkFactor" value="1.0" />
		<!-- step size to increase searchRadius if no stops are found -->
		<param name="extensionRadius" value="200.0" />
		<!-- maximum beeline distance between stops that agents could transfer to by walking -->
		<param name="maxBeelineWalkConnectionDistance" value="100.0" />
		<!-- the radius in which stop locations are searched, given a start or target coordinate -->
		<param name="searchRadius" value="1000.0" />
	</module>
	<module name="travelTimeCalculator" >
		<!-- (only for backwards compatibility; only used if separateModes==false && + filterModes==true)  Transport modes that will be respected by the travel time collector. 'car' is default which includes also buses from the pt simulation module. -->
		<param name="analyzedModes" value="car,bicycle" />
		<param name="calculateLinkToLinkTravelTimes" value="false" />
		<param name="calculateLinkTravelTimes" value="true" />
		<!-- (only for backwards compatiblity; only used if separateModes==false)  Only modes included in analyzedModes are included. -->
		<param name="filterModes" value="false" />
		<!-- The lenght (in sec) of the time period that is splited into time bins; an additional time bin is created to aggregate all travel times collected after maxTime -->
		<param name="maxTime" value="108000" />
		<!-- (only for backwards compatibility) If false, link travel times are measured and aggregated over all vehicles using the link. -->
		<param name="separateModes" value="true" />
		<!-- How to deal with congested time bins that have no link entry events. `optimistic' assumes free speed (too optimistic); 'experimental_LastMile' is experimental and probably too pessimistic. -->
		<param name="travelTimeAggregator" value="optimistic" />
		<!-- The size of the time bin (in sec) into which the link travel times are aggregated for the router -->
		<param name="travelTimeBinSize" value="900" />
		<!-- possible values: TravelTimeCalculatorArray TravelTimeCalculatorHashMap  -->
		<param name="travelTimeCalculator" value="TravelTimeCalculatorArray" />
		<!-- How to deal with link entry times at different positions during the time bin. Currently supported: average, linearinterpolation -->
		<param name="travelTimeGetter" value="average" />
	</module>
	<module name="vehicles" >
		<param name="vehiclesFile" value="mode-vehicles.xml" />
	</module>
	<module name="vspExperimental" >
		<!-- (do not use except of you have to) There was a problem with pt interaction scoring.  Some people solved it by overwriting the parameters of the pt interaction activity type.  Doing this now throws an Exception.  If you still insist on doing this, set the following to true. -->
		<param name="isAbleToOverwritePtInteractionParams" value="false" />
		<param name="isGeneratingBoardingDeniedEvent" value="false" />
		<!-- if an approximation of the opportunity cost of time is included into the radius calculation for location choice.`true' will be faster, but it is an approximation.  Default is `true'; `false' is available for backwards compatibility. -->
		<param name="isUsingOpportunityCostOfTimeForLocationChoice" value="true" />
		<param name="logitScaleParamForPlansRemoval" value="1.0" />
		<!-- Options: | ignore | info | warn | abort | .  When violating VSP defaults, this results in nothing, logfile infos, logfile warnings, or aborts.  Members of VSP should use `abort' or talk to kai. -->
		<param name="vspDefaultsCheckingLevel" value="ignore" />
		<!-- if true then writes output_events in output directory.  default is `false'. Will only work when lastIteration is multiple of events writing interval -->
		<param name="writingOutputEvents" value="true" />
	</module>

</config>

2022-12-31T00:23:52,944  INFO ControlerUtils:84 Complete config dump done.
2022-12-31T00:23:52,944  INFO ControlerUtils:85 Checking consistency of config...
2022-12-31T00:23:52,944  INFO VspConfigConsistencyCheckerImpl:63 NOT running vsp config consistency check because vsp defaults checking level is set to IGNORE
2022-12-31T00:23:52,947  INFO ControlerUtils:87 Checking consistency of config done.
2022-12-31T00:23:52,959  INFO Counter:69 [VehiclesImpl] added vehicle # 1
2022-12-31T00:23:52,960  WARN PrepareForSimImpl:220 'usePersonIdForMissingVehicleId' is deprecated. It will be removed soon.
2022-12-31T00:23:52,960  INFO Counter:69 [VehiclesImpl] added vehicle # 2
2022-12-31T00:23:52,960  INFO Counter:69 [VehiclesImpl] added vehicle # 4
2022-12-31T00:23:52,961  INFO Counter:69 [VehiclesImpl] added vehicle # 8
2022-12-31T00:23:52,961  INFO Counter:69 [VehiclesImpl] added vehicle # 16
2022-12-31T00:23:52,977  INFO PreProcessDijkstra:118 nodes in dead ends: 25 (total nodes: 95). Done in 1 ms
2022-12-31T00:23:52,977  INFO PreProcessLandmarks:112 Putting landmarks on network...
2022-12-31T00:23:52,978  INFO LandmarkerPieSlices:96 Filling sectors...
2022-12-31T00:23:52,981  INFO LandmarkerPieSlices:107 Refining landmarks...
2022-12-31T00:23:52,982  INFO LandmarkerPieSlices:109 done
2022-12-31T00:23:52,984  INFO PreProcessLandmarks:115 done in 5 ms
2022-12-31T00:23:52,984  INFO PreProcessLandmarks:117 Initializing landmarks data
2022-12-31T00:23:52,986  INFO PreProcessLandmarks:129 Calculating distance from each node to each of the 16 landmarks using 2 threads...
2022-12-31T00:23:52,987  INFO PreProcessLandmarks:139 wait for landmarks Calculator to finish...
2022-12-31T00:23:52,995  INFO PreProcessLandmarks:163 done in 8 ms
2022-12-31T00:23:53,003  INFO NetworkImpl:163  node # 1
2022-12-31T00:23:53,003  INFO NetworkImpl:163  node # 4
2022-12-31T00:23:53,003  INFO NetworkImpl:163  node # 16
2022-12-31T00:23:53,004  INFO NetworkImpl:163  node # 64
2022-12-31T00:23:53,006  INFO NetworkImpl:159  link # 1
2022-12-31T00:23:53,006  INFO NetworkImpl:159  link # 4
2022-12-31T00:23:53,006  INFO NetworkImpl:159  link # 16
2022-12-31T00:23:53,007  INFO NetworkImpl:159  link # 64
2022-12-31T00:23:53,009  WARN RandomizingTimeDistanceTravelDisutilityFactory:112 There will be no routing randomness. The randomization of the travel disutility requires the monetary distance rate to be different than zero. Continuing anyway.
2022-12-31T00:23:53,014  WARN RandomizingTimeDistanceTravelDisutilityFactory:117 There will be no routing randomness. The randomization of the travel disutility requires the travel time cost rate to be different than zero. Continuing anyway.
2022-12-31T00:23:53,018  INFO RandomizingTimeDistanceTravelDisutilityFactory:85  sigma: 3.0; resulting normalization: 0.011108996538242306
2022-12-31T00:23:53,020  INFO PreProcessDijkstra:118 nodes in dead ends: 25 (total nodes: 95). Done in 1 ms
2022-12-31T00:23:53,020  INFO PreProcessLandmarks:112 Putting landmarks on network...
2022-12-31T00:23:53,020  INFO LandmarkerPieSlices:96 Filling sectors...
2022-12-31T00:23:53,021  INFO LandmarkerPieSlices:107 Refining landmarks...
2022-12-31T00:23:53,021  INFO LandmarkerPieSlices:109 done
2022-12-31T00:23:53,021  INFO PreProcessLandmarks:115 done in 1 ms
2022-12-31T00:23:53,021  INFO PreProcessLandmarks:117 Initializing landmarks data
2022-12-31T00:23:53,021  INFO PreProcessLandmarks:129 Calculating distance from each node to each of the 16 landmarks using 2 threads...
2022-12-31T00:23:53,022  INFO PreProcessLandmarks:139 wait for landmarks Calculator to finish...
2022-12-31T00:23:53,026  INFO PreProcessLandmarks:163 done in 4 ms
2022-12-31T00:23:53,028  INFO NetworkImpl:163  node # 1
2022-12-31T00:23:53,028  INFO NetworkImpl:163  node # 4
2022-12-31T00:23:53,028  INFO NetworkImpl:163  node # 16
2022-12-31T00:23:53,028  INFO NetworkImpl:163  node # 64
2022-12-31T00:23:53,029  INFO NetworkImpl:159  link # 1
2022-12-31T00:23:53,029  INFO NetworkImpl:159  link # 4
2022-12-31T00:23:53,029  INFO NetworkImpl:159  link # 16
2022-12-31T00:23:53,030  INFO NetworkImpl:159  link # 64
2022-12-31T00:23:53,031  INFO RandomizingTimeDistanceTravelDisutilityFactory:85  sigma: 3.0; resulting normalization: 0.011108996538242306
2022-12-31T00:23:53,032  INFO PreProcessDijkstra:118 nodes in dead ends: 25 (total nodes: 95). Done in 0 ms
2022-12-31T00:23:53,032  INFO PreProcessLandmarks:112 Putting landmarks on network...
2022-12-31T00:23:53,033  INFO LandmarkerPieSlices:96 Filling sectors...
2022-12-31T00:23:53,033  INFO LandmarkerPieSlices:107 Refining landmarks...
2022-12-31T00:23:53,033  INFO LandmarkerPieSlices:109 done
2022-12-31T00:23:53,034  INFO PreProcessLandmarks:115 done in 1 ms
2022-12-31T00:23:53,034  INFO PreProcessLandmarks:117 Initializing landmarks data
2022-12-31T00:23:53,034  INFO PreProcessLandmarks:129 Calculating distance from each node to each of the 16 landmarks using 2 threads...
2022-12-31T00:23:53,035  INFO PreProcessLandmarks:139 wait for landmarks Calculator to finish...
2022-12-31T00:23:53,038  INFO PreProcessLandmarks:163 done in 4 ms
2022-12-31T00:23:53,040  INFO RandomizingTimeDistanceTravelDisutilityFactory:85  sigma: 3.0; resulting normalization: 0.011108996538242306
2022-12-31T00:23:53,042  INFO RandomizingTimeDistanceTravelDisutilityFactory:85  sigma: 3.0; resulting normalization: 0.011108996538242306
2022-12-31T00:23:53,055  INFO Counter:69 [PersonPrepareForSim] handled person # 1
2022-12-31T00:23:53,058  INFO Counter:69 [PersonPrepareForSim] handled person # 2
2022-12-31T00:23:53,062  INFO Counter:69 [PersonPrepareForSim] handled person # 4
2022-12-31T00:23:53,064  INFO Counter:69 [PersonPrepareForSim] handled person # 8
2022-12-31T00:23:53,066  INFO Counter:74 [PersonPrepareForSim] handled person # 10
2022-12-31T00:23:53,067  INFO AbstractController:133 ###################################################
2022-12-31T00:23:53,068  INFO AbstractController:134 ### ITERATION 0 BEGINS
2022-12-31T00:23:53,070  INFO ControlerListenerManagerImpl:145 calling notifyIterationStarts on org.matsim.analysis.LegHistogramListener
2022-12-31T00:23:53,071  INFO ControlerListenerManagerImpl:145 calling notifyIterationStarts on org.matsim.analysis.LinkStatsControlerListener
2022-12-31T00:23:53,071  INFO ControlerListenerManagerImpl:145 calling notifyIterationStarts on org.matsim.core.replanning.ReplanningContextImpl
2022-12-31T00:23:53,071  INFO ControlerListenerManagerImpl:145 calling notifyIterationStarts on org.matsim.core.scoring.ScoringFunctionsForPopulation$$Lambda$212/0x0000000800f1c830
2022-12-31T00:23:53,081  INFO ControlerListenerManagerImpl:145 calling notifyIterationStarts on org.matsim.core.scoring.ExperiencedPlansServiceImpl$1
2022-12-31T00:23:53,081  INFO ControlerListenerManagerImpl:148 [it.0] all ControlerIterationStartsListeners called.
2022-12-31T00:23:53,082  INFO ControlerListenerManagerImpl:224 calling notifyBeforeMobsim on org.matsim.core.controler.corelisteners.EventsHandlingImpl
2022-12-31T00:23:53,082  INFO EventsManagerImpl:190 resetting Event-Handlers
2022-12-31T00:23:53,082  INFO EventsManagerImpl:197   org.matsim.core.trafficmonitoring.TravelTimeCalculator
2022-12-31T00:23:53,082  INFO EventsManagerImpl:197   org.matsim.core.trafficmonitoring.TravelTimeCalculator
2022-12-31T00:23:53,083  INFO EventsManagerImpl:197   org.matsim.analysis.VolumesAnalyzer
2022-12-31T00:23:53,083  INFO EventsManagerImpl:197   org.matsim.core.scoring.ScoringFunctionsForPopulation
2022-12-31T00:23:53,083  INFO EventsManagerImpl:197   org.matsim.analysis.LegHistogram
2022-12-31T00:23:53,083  INFO EventsManagerImpl:197   org.matsim.analysis.CalcLegTimes
2022-12-31T00:23:53,090  INFO EventsManagerImpl:160 adding Event-Handler: org.matsim.core.events.algorithms.EventWriterXML
2022-12-31T00:23:53,090  INFO EventsManagerImpl:166   org.matsim.core.events.algorithms.EventWriter
2022-12-31T00:23:53,091  INFO EventsManagerImpl:166   org.matsim.core.events.handler.BasicEventHandler
2022-12-31T00:23:53,091  INFO EventsManagerImpl:227     > org.matsim.api.core.v01.events.Event
2022-12-31T00:23:53,091  INFO EventsManagerImpl:176 
2022-12-31T00:23:53,091  INFO EventsManagerImpl:160 adding Event-Handler: org.matsim.core.events.algorithms.EventWriterXML
2022-12-31T00:23:53,091  INFO EventsManagerImpl:166   org.matsim.core.events.algorithms.EventWriter
2022-12-31T00:23:53,091  INFO EventsManagerImpl:166   org.matsim.core.events.handler.BasicEventHandler
2022-12-31T00:23:53,091  INFO EventsManagerImpl:227     > org.matsim.api.core.v01.events.Event
2022-12-31T00:23:53,091  INFO EventsManagerImpl:176 
2022-12-31T00:23:53,091  INFO ControlerListenerManagerImpl:224 calling notifyBeforeMobsim on org.matsim.core.controler.corelisteners.PlansDumpingImpl
2022-12-31T00:23:53,092  INFO PlansDumpingImpl:76 dumping plans...
2022-12-31T00:23:53,106  INFO Counter:69 [PopulationWriter] dumped person # 1
2022-12-31T00:23:53,107  INFO Counter:69 [PopulationWriter] dumped person # 2
2022-12-31T00:23:53,107  INFO Counter:69 [PopulationWriter] dumped person # 4
2022-12-31T00:23:53,108  INFO Counter:69 [PopulationWriter] dumped person # 8
2022-12-31T00:23:53,109  INFO PopulationWriter:144 Population written to: ./output/ITERS/it.0/0.plans.xml.gz
2022-12-31T00:23:53,110  INFO Counter:74 [PopulationWriter] dumped person # 10
2022-12-31T00:23:53,110  INFO PlansDumpingImpl:93 finished plans dump.
2022-12-31T00:23:53,111  INFO ControlerListenerManagerImpl:229 calling notifyBeforeMobsim on org.matsim.core.population.VspPlansCleaner
2022-12-31T00:23:53,111  INFO ControlerListenerManagerImpl:232 [it.0] all ControlerBeforeMobsimListeners called.
2022-12-31T00:23:53,111  INFO PrepareForMobsimImpl:86 Network seems to be multimodal. Create car-only network which is handed over to PersonPrepareForSim.
2022-12-31T00:23:53,112  INFO NetworkImpl:163  node # 1
2022-12-31T00:23:53,112  INFO NetworkImpl:163  node # 4
2022-12-31T00:23:53,112  INFO NetworkImpl:163  node # 16
2022-12-31T00:23:53,112  INFO NetworkImpl:163  node # 64
2022-12-31T00:23:53,112  INFO NetworkImpl:159  link # 1
2022-12-31T00:23:53,112  INFO NetworkImpl:159  link # 4
2022-12-31T00:23:53,113  INFO NetworkImpl:159  link # 16
2022-12-31T00:23:53,113  INFO NetworkImpl:159  link # 64
2022-12-31T00:23:53,118  INFO RandomizingTimeDistanceTravelDisutilityFactory:85  sigma: 3.0; resulting normalization: 0.011108996538242306
2022-12-31T00:23:53,120  INFO RandomizingTimeDistanceTravelDisutilityFactory:85  sigma: 3.0; resulting normalization: 0.011108996538242306
2022-12-31T00:23:53,121  INFO RandomizingTimeDistanceTravelDisutilityFactory:85  sigma: 3.0; resulting normalization: 0.011108996538242306
2022-12-31T00:23:53,121  INFO RandomizingTimeDistanceTravelDisutilityFactory:85  sigma: 3.0; resulting normalization: 0.011108996538242306
2022-12-31T00:23:53,122  INFO Counter:69 [PersonPrepareForSim] handled person # 1
2022-12-31T00:23:53,122  INFO Counter:69 [PersonPrepareForSim] handled person # 2
2022-12-31T00:23:53,123  INFO Counter:69 [PersonPrepareForSim] handled person # 4
2022-12-31T00:23:53,124  INFO Counter:69 [PersonPrepareForSim] handled person # 8
2022-12-31T00:23:53,124  INFO Counter:74 [PersonPrepareForSim] handled person # 10
2022-12-31T00:23:53,198  INFO MobsimListenerManager:49 calling addQueueSimulationListener
2022-12-31T00:23:53,199  INFO MobsimListenerManager:53   assigned class org.matsim.core.mobsim.framework.listeners.MobsimListener to interface org.matsim.vis.snapshotwriters.SnapshotWriterManager
2022-12-31T00:23:53,201  INFO MobsimListenerManager:53   assigned class org.matsim.core.mobsim.framework.listeners.MobsimListener to interface org.matsim.core.mobsim.framework.listeners.MobsimListener
2022-12-31T00:23:53,201  INFO MobsimListenerManager:53   assigned class org.matsim.core.mobsim.framework.listeners.MobsimListener to interface org.matsim.core.mobsim.framework.listeners.MobsimAfterSimStepListener
2022-12-31T00:23:53,201  INFO MobsimListenerManager:53   assigned class org.matsim.core.mobsim.framework.listeners.MobsimListener to interface org.matsim.core.mobsim.framework.listeners.MobsimBeforeCleanupListener
2022-12-31T00:23:53,201  INFO MobsimListenerManager:53   assigned class org.matsim.core.mobsim.framework.listeners.MobsimListener to interface org.matsim.core.mobsim.framework.listeners.MobsimInitializedListener
2022-12-31T00:23:53,221  WARN QueueWithBuffer:421 max flow from fdiag < flow cap in network file; linkId=1; network file flow cap/h=4000.0; max flow from fdiag/h=3076.9230769230767
2022-12-31T00:23:53,223  WARN QueueWithBuffer:425 number of lanes from fdiag > number of lanes in network file; linkId=1; number of lanes in network file=2.0; number of lanes from fdiag=2.6
2022-12-31T00:23:53,223  WARN QueueWithBuffer:435 The flow capacity will be reduced. See link attribute 'maxInflowUsedInQsim' written into the output network.
2022-12-31T00:23:53,223  WARN QueueWithBuffer:538 storage capacity not sufficient for holes; increasing from 53.19941458648133 to 69.15923896242573
2022-12-31T00:23:53,224  WARN QueueWithBuffer:421 max flow from fdiag < flow cap in network file; linkId=100; network file flow cap/h=4000.0; max flow from fdiag/h=3200.0
2022-12-31T00:23:53,225  WARN QueueWithBuffer:425 number of lanes from fdiag > number of lanes in network file; linkId=100; number of lanes in network file=2.0; number of lanes from fdiag=2.5
2022-12-31T00:23:53,225  WARN QueueWithBuffer:435 The flow capacity will be reduced. See link attribute 'maxInflowUsedInQsim' written into the output network.
2022-12-31T00:23:53,225  WARN QueueWithBuffer:538 storage capacity not sufficient for holes; increasing from 25.70875723633416 to 32.1359465454177
2022-12-31T00:23:53,225  WARN QueueWithBuffer:421 max flow from fdiag < flow cap in network file; linkId=101; network file flow cap/h=8000.0; max flow from fdiag/h=6400.0
2022-12-31T00:23:53,225  WARN QueueWithBuffer:425 number of lanes from fdiag > number of lanes in network file; linkId=101; number of lanes in network file=4.0; number of lanes from fdiag=5.0
2022-12-31T00:23:53,225  WARN QueueWithBuffer:435 The flow capacity will be reduced. See link attribute 'maxInflowUsedInQsim' written into the output network.
2022-12-31T00:23:53,225  WARN QueueWithBuffer:538 storage capacity not sufficient for holes; increasing from 5.277062485821551 to 6.59632810727694
2022-12-31T00:23:53,225  WARN QueueWithBuffer:421 max flow from fdiag < flow cap in network file; linkId=102; network file flow cap/h=8000.0; max flow from fdiag/h=6400.0
2022-12-31T00:23:53,226  WARN QueueWithBuffer:425 number of lanes from fdiag > number of lanes in network file; linkId=102; number of lanes in network file=4.0; number of lanes from fdiag=5.0
2022-12-31T00:23:53,226  WARN QueueWithBuffer:435 The flow capacity will be reduced. See link attribute 'maxInflowUsedInQsim' written into the output network.
2022-12-31T00:23:53,226  WARN QueueWithBuffer:538 storage capacity not sufficient for holes; increasing from 136.82418277724753 to 171.0302284715594
2022-12-31T00:23:53,226  WARN QueueWithBuffer:421 max flow from fdiag < flow cap in network file; linkId=103; network file flow cap/h=2000.0; max flow from fdiag/h=1600.0
2022-12-31T00:23:53,226  WARN QueueWithBuffer:425 number of lanes from fdiag > number of lanes in network file; linkId=103; number of lanes in network file=1.0; number of lanes from fdiag=1.25
2022-12-31T00:23:53,226  WARN QueueWithBuffer:435 The flow capacity will be reduced. See link attribute 'maxInflowUsedInQsim' written into the output network.
2022-12-31T00:23:53,226  WARN QueueWithBuffer:538 storage capacity not sufficient for holes; increasing from 8.15351281988767 to 10.191891024859586
2022-12-31T00:23:53,227  WARN QueueWithBuffer:421 max flow from fdiag < flow cap in network file; linkId=104; network file flow cap/h=2000.0; max flow from fdiag/h=1600.0
2022-12-31T00:23:53,227  WARN QueueWithBuffer:425 number of lanes from fdiag > number of lanes in network file; linkId=104; number of lanes in network file=1.0; number of lanes from fdiag=1.25
2022-12-31T00:23:53,227  WARN QueueWithBuffer:435 The flow capacity will be reduced. See link attribute 'maxInflowUsedInQsim' written into the output network.
2022-12-31T00:23:53,227  WARN QueueWithBuffer:538 storage capacity not sufficient for holes; increasing from 8.15351281988767 to 10.191891024859586
2022-12-31T00:23:53,227  WARN QueueWithBuffer:421 max flow from fdiag < flow cap in network file; linkId=105; network file flow cap/h=2000.0; max flow from fdiag/h=1600.0
2022-12-31T00:23:53,227  WARN QueueWithBuffer:425 number of lanes from fdiag > number of lanes in network file; linkId=105; number of lanes in network file=1.0; number of lanes from fdiag=1.25
2022-12-31T00:23:53,227  WARN QueueWithBuffer:435 The flow capacity will be reduced. See link attribute 'maxInflowUsedInQsim' written into the output network.
2022-12-31T00:23:53,228  WARN QueueWithBuffer:538 storage capacity not sufficient for holes; increasing from 25.853470293639102 to 32.31683786704888
2022-12-31T00:23:53,228  WARN QueueWithBuffer:421 max flow from fdiag < flow cap in network file; linkId=106; network file flow cap/h=2000.0; max flow from fdiag/h=1600.0
2022-12-31T00:23:53,228  WARN QueueWithBuffer:425 number of lanes from fdiag > number of lanes in network file; linkId=106; number of lanes in network file=1.0; number of lanes from fdiag=1.25
2022-12-31T00:23:53,228  WARN QueueWithBuffer:435 The flow capacity will be reduced. See link attribute 'maxInflowUsedInQsim' written into the output network.
2022-12-31T00:23:53,228  WARN QueueWithBuffer:538 storage capacity not sufficient for holes; increasing from 25.853470293639102 to 32.31683786704888
2022-12-31T00:23:53,228  WARN QueueWithBuffer:421 max flow from fdiag < flow cap in network file; linkId=107; network file flow cap/h=2000.0; max flow from fdiag/h=1600.0
2022-12-31T00:23:53,228  WARN QueueWithBuffer:425 number of lanes from fdiag > number of lanes in network file; linkId=107; number of lanes in network file=1.0; number of lanes from fdiag=1.25
2022-12-31T00:23:53,229  WARN QueueWithBuffer:435 The flow capacity will be reduced. See link attribute 'maxInflowUsedInQsim' written into the output network.
2022-12-31T00:23:53,229  WARN QueueWithBuffer:538 storage capacity not sufficient for holes; increasing from 5.6202806121003155 to 7.025350765125395
2022-12-31T00:23:53,229  WARN QueueWithBuffer:421 max flow from fdiag < flow cap in network file; linkId=108; network file flow cap/h=2000.0; max flow from fdiag/h=1600.0
2022-12-31T00:23:53,229  WARN QueueWithBuffer:425 number of lanes from fdiag > number of lanes in network file; linkId=108; number of lanes in network file=1.0; number of lanes from fdiag=1.25
2022-12-31T00:23:53,229  WARN QueueWithBuffer:430  Future occurences of this logging statement are suppressed.
2022-12-31T00:23:53,229  WARN QueueWithBuffer:538 storage capacity not sufficient for holes; increasing from 5.6202806121003155 to 7.025350765125395
2022-12-31T00:23:53,229  WARN QueueWithBuffer:538 storage capacity not sufficient for holes; increasing from 626.9161120168054 to 783.6451400210068
2022-12-31T00:23:53,245  INFO QSimProvider:122 Added MobsimEngine class org.matsim.core.mobsim.qsim.ActivityEngineDefaultImpl
2022-12-31T00:23:53,245  INFO QSimProvider:128 Added Activityhandler class org.matsim.core.mobsim.qsim.ActivityEngineDefaultImpl
2022-12-31T00:23:53,245  INFO QSimProvider:134 Added DepartureHandler class org.matsim.core.mobsim.qsim.qnetsimengine.VehicularDepartureHandler
2022-12-31T00:23:53,246  INFO QSimProvider:122 Added MobsimEngine class org.matsim.core.mobsim.qsim.qnetsimengine.QNetsimEngineWithThreadpool
2022-12-31T00:23:53,246  INFO QSimProvider:122 Added MobsimEngine class org.matsim.core.mobsim.qsim.DefaultTeleportationEngine
2022-12-31T00:23:53,246  INFO QSimProvider:134 Added DepartureHandler class org.matsim.core.mobsim.qsim.DefaultTeleportationEngine
2022-12-31T00:23:53,246  INFO QSimProvider:140 Added AgentSource class org.matsim.core.mobsim.qsim.agents.PopulationAgentSource
2022-12-31T00:23:53,246  INFO MobsimListenerManager:49 calling addQueueSimulationListener
2022-12-31T00:23:53,246  INFO MobsimListenerManager:53   assigned class org.matsim.core.mobsim.framework.listeners.MobsimListener to interface org.matsim.core.mobsim.qsim.messagequeueengine.MessageQueueEngine
2022-12-31T00:23:53,246  INFO MobsimListenerManager:53   assigned class org.matsim.core.mobsim.framework.listeners.MobsimListener to interface org.matsim.core.mobsim.framework.listeners.MobsimListener
2022-12-31T00:23:53,246  INFO MobsimListenerManager:53   assigned class org.matsim.core.mobsim.framework.listeners.MobsimListener to interface org.matsim.core.mobsim.framework.listeners.MobsimBeforeSimStepListener
2022-12-31T00:23:53,247  INFO QSimProvider:146 Added MobsimListener class org.matsim.core.mobsim.qsim.messagequeueengine.MessageQueueEngine
2022-12-31T00:23:53,256  INFO PopulationUtils:1145 adding scenario element for allpersons container
2022-12-31T00:23:53,257  INFO PopulationImpl:105  person # 1
2022-12-31T00:23:53,257  INFO PopulationImpl:105  person # 4
2022-12-31T00:23:53,258  INFO VehicleUtils:327 adding scenario element for allvehicles container
2022-12-31T00:23:53,258  INFO Counter:69 [VehiclesImpl] added vehicle # 1
2022-12-31T00:23:53,258  INFO Counter:69 [VehiclesImpl] added vehicle # 2
2022-12-31T00:23:53,258  INFO Counter:69 [VehiclesImpl] added vehicle # 4
2022-12-31T00:23:53,258  INFO Counter:69 [VehiclesImpl] added vehicle # 8
2022-12-31T00:23:53,261  INFO AbstractQNetsimEngine:427 Assigned 95 nodes and 176 links to QSimEngineRunner #0
2022-12-31T00:23:53,262  INFO EventsManagerImpl:137  event # 1
2022-12-31T00:23:53,269  INFO EventsManagerImpl:137  event # 4
2022-12-31T00:23:53,273  INFO AbstractQNetsimEngine:365 SIMULATION (QNetsimEngine) AT 05:58:30 : #links=0 #nodes=1
2022-12-31T00:23:53,281  INFO QSim:553 SIMULATION (NEW QSim) AT 05:58:30 : #Veh=10 lost=0 simT=0.0s realT=0s; (s/r): 0.0
2022-12-31T00:23:53,291  INFO EventsManagerImpl:137  event # 16
2022-12-31T00:23:53,305  INFO EventsManagerImpl:137  event # 64
2022-12-31T00:23:53,307  INFO AbstractQNetsimEngine:365 SIMULATION (QNetsimEngine) AT 06:00:00 : #links=9 #nodes=2
2022-12-31T00:23:53,308  INFO QSim:553 SIMULATION (NEW QSim) AT 06:00:00 : #Veh=10 lost=0 simT=90.0s realT=0s; (s/r): Infinity
2022-12-31T00:23:53,332  INFO EventsManagerImpl:137  event # 256
2022-12-31T00:23:53,689  INFO AbstractQNetsimEngine:365 SIMULATION (QNetsimEngine) AT 07:00:00 : #links=0 #nodes=0
2022-12-31T00:23:53,689  INFO QSim:553 SIMULATION (NEW QSim) AT 07:00:00 : #Veh=4 lost=0 simT=3690.0s realT=0s; (s/r): Infinity
2022-12-31T00:23:54,123  INFO AbstractQNetsimEngine:365 SIMULATION (QNetsimEngine) AT 08:00:00 : #links=0 #nodes=0
2022-12-31T00:23:54,124  INFO QSim:553 SIMULATION (NEW QSim) AT 08:00:00 : #Veh=3 lost=0 simT=7290.0s realT=0s; (s/r): Infinity
2022-12-31T00:23:54,449  INFO AbstractQNetsimEngine:365 SIMULATION (QNetsimEngine) AT 09:00:00 : #links=0 #nodes=0
2022-12-31T00:23:54,452  INFO QSim:553 SIMULATION (NEW QSim) AT 09:00:00 : #Veh=1 lost=0 simT=10890.0s realT=1s; (s/r): 10890.0
2022-12-31T00:23:54,720  INFO AbstractQNetsimEngine:365 SIMULATION (QNetsimEngine) AT 10:00:00 : #links=0 #nodes=0
2022-12-31T00:23:54,720  INFO QSim:553 SIMULATION (NEW QSim) AT 10:00:00 : #Veh=1 lost=0 simT=14490.0s realT=1s; (s/r): 14490.0
2022-12-31T00:23:54,983  INFO AbstractQNetsimEngine:365 SIMULATION (QNetsimEngine) AT 11:00:00 : #links=0 #nodes=0
2022-12-31T00:23:54,984  INFO QSim:553 SIMULATION (NEW QSim) AT 11:00:00 : #Veh=1 lost=0 simT=18090.0s realT=1s; (s/r): 18090.0
2022-12-31T00:23:55,253  INFO AbstractQNetsimEngine:365 SIMULATION (QNetsimEngine) AT 12:00:00 : #links=0 #nodes=0
2022-12-31T00:23:55,254  INFO QSim:553 SIMULATION (NEW QSim) AT 12:00:00 : #Veh=1 lost=0 simT=21690.0s realT=2s; (s/r): 10845.0
2022-12-31T00:23:55,409  INFO AbstractController$9:234 ### ITERATION 0 fires after mobsim event
2022-12-31T00:23:55,409  INFO ControlerListenerManagerImpl:248 calling notifyAfterMobsim on org.matsim.analysis.LegTimesControlerListener
2022-12-31T00:23:55,410  INFO Gbl:191 Thread performance: Thread=class org.matsim.core.events.SimStepParallelEventsManagerImpl$ProcessEventsRunnable0  cpu-time=0.421875sec
2022-12-31T00:23:55,417  INFO LegTimesControlerListener:50 [0] average trip (probably: leg) duration is: 191 seconds = 00:03:11
2022-12-31T00:23:55,417  INFO ControlerListenerManagerImpl:248 calling notifyAfterMobsim on org.matsim.core.events.MobsimScopeEventHandling
2022-12-31T00:23:55,419  INFO ControlerListenerManagerImpl:248 calling notifyAfterMobsim on org.matsim.core.scoring.EventsToActivities$1
2022-12-31T00:23:55,420  INFO ControlerListenerManagerImpl:251 [it.0] all ControlerAfterMobsimListeners called.
2022-12-31T00:23:55,421  INFO AbstractController$4:159 ### ITERATION 0 fires scoring event
2022-12-31T00:23:55,421  INFO ControlerListenerManagerImpl:183 calling notifyScoring on org.matsim.core.scoring.PlansScoringImpl
2022-12-31T00:23:55,425  INFO NewScoreAssignerImpl:57 it: 0 msaStart: null
2022-12-31T00:23:55,427  INFO ControlerListenerManagerImpl:194 [it.0] all ControlerScoringListeners called.
2022-12-31T00:23:55,428  INFO AbstractController$5:167 ### ITERATION 0 fires iteration end event
2022-12-31T00:23:55,428  INFO ControlerListenerManagerImpl:160 calling notifyIterationEnds on org.matsim.core.controler.corelisteners.EventsHandlingImpl
2022-12-31T00:23:55,430  INFO EventsManagerImpl:181 removing Event-Handler: org.matsim.core.events.algorithms.EventWriterXML
2022-12-31T00:23:55,430  INFO EventsManagerImpl:181 removing Event-Handler: org.matsim.core.events.algorithms.EventWriterXML
2022-12-31T00:23:55,430  INFO ControlerListenerManagerImpl:160 calling notifyIterationEnds on org.matsim.core.scoring.PlansScoringImpl
2022-12-31T00:23:55,430  INFO ControlerListenerManagerImpl:167 calling notifyIterationEnds on org.matsim.counts.CountsControlerListener
2022-12-31T00:23:55,431  INFO ControlerListenerManagerImpl:167 calling notifyIterationEnds on org.matsim.analysis.ModeStatsControlerListener
2022-12-31T00:23:55,431  INFO ModeStatsControlerListener:144 Mode shares over all 20.0 trips found. MainModeIdentifier: class org.matsim.core.router.RoutingModeMainModeIdentifier
2022-12-31T00:23:55,432  INFO ModeStatsControlerListener:151 -- mode share of mode bicycle = 0.2
2022-12-31T00:23:55,432  INFO ModeStatsControlerListener:151 -- mode share of mode car = 0.8
2022-12-31T00:23:55,434  INFO ControlerListenerManagerImpl:167 calling notifyIterationEnds on org.matsim.analysis.ScoreStatsControlerListener
2022-12-31T00:23:55,435  INFO ScoreStatsControlerListener:181 -- avg. score of the executed plan of each agent: 81.58322338481483
2022-12-31T00:23:55,436  INFO ScoreStatsControlerListener:182 -- avg. score of the worst plan of each agent: 81.58322338481483
2022-12-31T00:23:55,436  INFO ScoreStatsControlerListener:183 -- avg. of the avg. plan score per agent: 81.58322338481483
2022-12-31T00:23:55,436  INFO ScoreStatsControlerListener:184 -- avg. score of the best plan of each agent: 81.58322338481483
2022-12-31T00:23:55,442  INFO ControlerListenerManagerImpl:167 calling notifyIterationEnds on org.matsim.analysis.IterationTravelStatsControlerListener
2022-12-31T00:23:55,471  INFO TravelDistanceStats:143 -- average leg distance per plan (executed plans only): 1747.8695015818957 meters
2022-12-31T00:23:55,473  INFO TravelDistanceStats:144 average leg distance per Person (executed plans only): 3495.7390031637915 meters (statistic on all 20 legs which have a finite distance)
2022-12-31T00:23:55,475  INFO TravelDistanceStats:145 -- average trip distance per plan (executed plans only): 1747.8695015818957 meters
2022-12-31T00:23:55,475  INFO TravelDistanceStats:146 average trip distance per Person (executed plans only): 3495.7390031637915 meters (statistic on all 20 trips which have a finite distance)
2022-12-31T00:23:55,475  INFO TravelDistanceStats:147 (TravelDistanceStats takes an average over all legs where the simulation reports travelled (network) distances
2022-12-31T00:23:55,475  INFO TravelDistanceStats:148 (and teleported legs whose route contains a distance.)
2022-12-31T00:23:57,613  INFO ControlerListenerManagerImpl:167 calling notifyIterationEnds on org.matsim.analysis.LegHistogramListener
2022-12-31T00:23:57,629  INFO LegHistogramListener:72 number of legs:	20	100%
2022-12-31T00:23:57,631  INFO LegHistogramListener:79 number of bicycle legs:	4	20.0%
2022-12-31T00:23:57,632  INFO LegHistogramListener:79 number of car legs:	16	80.0%
2022-12-31T00:23:57,979  INFO ControlerListenerManagerImpl:167 calling notifyIterationEnds on org.matsim.analysis.LinkStatsControlerListener
2022-12-31T00:23:57,981  INFO ControlerListenerManagerImpl:171 [it.0] all ControlerIterationEndsListeners called.
2022-12-31T00:23:58,130  INFO AbstractController:181 ### ITERATION 0 ENDS
2022-12-31T00:23:58,131  INFO AbstractController:182 ###################################################
2022-12-31T00:23:58,133  INFO AbstractController:133 ###################################################
2022-12-31T00:23:58,134  INFO AbstractController:134 ### ITERATION 1 BEGINS
2022-12-31T00:23:58,135  INFO ControlerListenerManagerImpl:145 calling notifyIterationStarts on org.matsim.analysis.LegHistogramListener
2022-12-31T00:23:58,135  INFO ControlerListenerManagerImpl:145 calling notifyIterationStarts on org.matsim.analysis.LinkStatsControlerListener
2022-12-31T00:23:58,136  INFO ControlerListenerManagerImpl:145 calling notifyIterationStarts on org.matsim.core.replanning.ReplanningContextImpl
2022-12-31T00:23:58,136  INFO ControlerListenerManagerImpl:145 calling notifyIterationStarts on org.matsim.core.scoring.ScoringFunctionsForPopulation$$Lambda$212/0x0000000800f1c830
2022-12-31T00:23:58,136  INFO ControlerListenerManagerImpl:145 calling notifyIterationStarts on org.matsim.core.scoring.ExperiencedPlansServiceImpl$1
2022-12-31T00:23:58,136  INFO ControlerListenerManagerImpl:148 [it.1] all ControlerIterationStartsListeners called.
2022-12-31T00:23:58,137  INFO ControlerListenerManagerImpl:205 calling notifyReplanning on org.matsim.core.controler.corelisteners.PlansReplanningImpl
2022-12-31T00:23:58,139  INFO RandomizingTimeDistanceTravelDisutilityFactory:85  sigma: 3.0; resulting normalization: 0.011108996538242306
2022-12-31T00:23:58,140  INFO RandomizingTimeDistanceTravelDisutilityFactory:85  sigma: 3.0; resulting normalization: 0.011108996538242306
2022-12-31T00:23:58,145  INFO GenericPlanStrategyImpl:125 Plan-Strategy finished, 9 plans handled. Strategy: BestPlanSelector
2022-12-31T00:23:58,150  INFO AbstractMultithreadedModule:141 [PlanRouter] starting 2 threads, handling 1 plans
2022-12-31T00:23:58,156  INFO Counter:69 [PlanRouter] handled plan # 1
2022-12-31T00:23:58,157  INFO AbstractMultithreadedModule:156 [PlanRouter] all 2 threads finished.
2022-12-31T00:23:58,157  INFO GenericPlanStrategyImpl:125 Plan-Strategy finished, 1 plans handled. Strategy: RandomPlanSelector_ReRoute
2022-12-31T00:23:58,158  INFO ControlerListenerManagerImpl:213 [it.1] all ControlerReplanningListeners called.
2022-12-31T00:23:58,158  INFO ControlerListenerManagerImpl:224 calling notifyBeforeMobsim on org.matsim.core.controler.corelisteners.EventsHandlingImpl
2022-12-31T00:23:58,158  INFO EventsManagerImpl:190 resetting Event-Handlers
2022-12-31T00:23:58,158  INFO EventsManagerImpl:197   org.matsim.core.trafficmonitoring.TravelTimeCalculator
2022-12-31T00:23:58,158  INFO EventsManagerImpl:197   org.matsim.core.trafficmonitoring.TravelTimeCalculator
2022-12-31T00:23:58,159  INFO EventsManagerImpl:197   org.matsim.analysis.VolumesAnalyzer
2022-12-31T00:23:58,162  INFO EventsManagerImpl:197   org.matsim.core.scoring.ScoringFunctionsForPopulation
2022-12-31T00:23:58,162  INFO EventsManagerImpl:197   org.matsim.analysis.LegHistogram
2022-12-31T00:23:58,162  INFO EventsManagerImpl:197   org.matsim.analysis.CalcLegTimes
2022-12-31T00:23:58,163  INFO ControlerListenerManagerImpl:224 calling notifyBeforeMobsim on org.matsim.core.controler.corelisteners.PlansDumpingImpl
2022-12-31T00:23:58,163  INFO PlansDumpingImpl:76 dumping plans...
2022-12-31T00:23:58,166  INFO Counter:69 [PopulationWriter] dumped person # 1
2022-12-31T00:23:58,170  INFO Counter:69 [PopulationWriter] dumped person # 2
2022-12-31T00:23:58,175  INFO Counter:69 [PopulationWriter] dumped person # 4
2022-12-31T00:23:58,180  INFO Counter:69 [PopulationWriter] dumped person # 8
2022-12-31T00:23:58,181  INFO PopulationWriter:144 Population written to: ./output/ITERS/it.1/1.plans.xml.gz
2022-12-31T00:23:58,182  INFO Counter:74 [PopulationWriter] dumped person # 10
2022-12-31T00:23:58,183  INFO PlansDumpingImpl:93 finished plans dump.
2022-12-31T00:23:58,184  INFO ControlerListenerManagerImpl:229 calling notifyBeforeMobsim on org.matsim.core.population.VspPlansCleaner
2022-12-31T00:23:58,185  INFO ControlerListenerManagerImpl:232 [it.1] all ControlerBeforeMobsimListeners called.
2022-12-31T00:23:58,185  INFO PrepareForMobsimImpl:86 Network seems to be multimodal. Create car-only network which is handed over to PersonPrepareForSim.
2022-12-31T00:23:58,185  INFO NetworkImpl:163  node # 1
2022-12-31T00:23:58,185  INFO NetworkImpl:163  node # 4
2022-12-31T00:23:58,186  INFO NetworkImpl:163  node # 16
2022-12-31T00:23:58,186  INFO NetworkImpl:163  node # 64
2022-12-31T00:23:58,186  INFO NetworkImpl:159  link # 1
2022-12-31T00:23:58,186  INFO NetworkImpl:159  link # 4
2022-12-31T00:23:58,187  INFO NetworkImpl:159  link # 16
2022-12-31T00:23:58,187  INFO NetworkImpl:159  link # 64
2022-12-31T00:23:58,195  INFO Counter:69 [PersonPrepareForSim] handled person # 1
2022-12-31T00:23:58,195  INFO Counter:69 [PersonPrepareForSim] handled person # 2
2022-12-31T00:23:58,196  INFO Counter:69 [PersonPrepareForSim] handled person # 4
2022-12-31T00:23:58,196  INFO Counter:69 [PersonPrepareForSim] handled person # 8
2022-12-31T00:23:58,196  INFO Counter:74 [PersonPrepareForSim] handled person # 10
2022-12-31T00:23:58,214  INFO MobsimListenerManager:49 calling addQueueSimulationListener
2022-12-31T00:23:58,215  INFO MobsimListenerManager:53   assigned class org.matsim.core.mobsim.framework.listeners.MobsimListener to interface org.matsim.vis.snapshotwriters.SnapshotWriterManager
[...]
2022-12-31T00:24:22,985  INFO AbstractMultithreadedModule:156 [PlanRouter] all 2 threads finished.
2022-12-31T00:24:22,985  INFO GenericPlanStrategyImpl:125 Plan-Strategy finished, 0 plans handled. Strategy: RandomPlanSelector_ReRoute
2022-12-31T00:24:22,985  INFO ControlerListenerManagerImpl:213 [it.10] all ControlerReplanningListeners called.
2022-12-31T00:24:22,985  INFO ControlerListenerManagerImpl:224 calling notifyBeforeMobsim on org.matsim.core.controler.corelisteners.EventsHandlingImpl
2022-12-31T00:24:22,985  INFO EventsManagerImpl:190 resetting Event-Handlers
2022-12-31T00:24:22,985  INFO EventsManagerImpl:197   org.matsim.core.trafficmonitoring.TravelTimeCalculator
2022-12-31T00:24:22,985  INFO EventsManagerImpl:197   org.matsim.core.trafficmonitoring.TravelTimeCalculator
2022-12-31T00:24:22,985  INFO EventsManagerImpl:197   org.matsim.analysis.VolumesAnalyzer
2022-12-31T00:24:22,985  INFO EventsManagerImpl:197   org.matsim.core.scoring.ScoringFunctionsForPopulation
2022-12-31T00:24:22,986  INFO EventsManagerImpl:197   org.matsim.analysis.LegHistogram
2022-12-31T00:24:22,986  INFO EventsManagerImpl:197   org.matsim.analysis.CalcLegTimes
2022-12-31T00:24:22,987  INFO EventsManagerImpl:160 adding Event-Handler: org.matsim.core.events.algorithms.EventWriterXML
2022-12-31T00:24:22,987  INFO EventsManagerImpl:166   org.matsim.core.events.algorithms.EventWriter
2022-12-31T00:24:22,987  INFO EventsManagerImpl:166   org.matsim.core.events.handler.BasicEventHandler
2022-12-31T00:24:22,987  INFO EventsManagerImpl:227     > org.matsim.api.core.v01.events.Event
2022-12-31T00:24:22,988  INFO EventsManagerImpl:176 
2022-12-31T00:24:22,988  INFO EventsManagerImpl:160 adding Event-Handler: org.matsim.core.events.algorithms.EventWriterXML
2022-12-31T00:24:22,988  INFO EventsManagerImpl:166   org.matsim.core.events.algorithms.EventWriter
2022-12-31T00:24:22,988  INFO EventsManagerImpl:166   org.matsim.core.events.handler.BasicEventHandler
2022-12-31T00:24:22,988  INFO EventsManagerImpl:227     > org.matsim.api.core.v01.events.Event
2022-12-31T00:24:22,988  INFO EventsManagerImpl:176 
2022-12-31T00:24:22,988  INFO ControlerListenerManagerImpl:224 calling notifyBeforeMobsim on org.matsim.core.controler.corelisteners.PlansDumpingImpl
2022-12-31T00:24:22,988  INFO ControlerListenerManagerImpl:229 calling notifyBeforeMobsim on org.matsim.core.population.VspPlansCleaner
2022-12-31T00:24:22,989  INFO ControlerListenerManagerImpl:232 [it.10] all ControlerBeforeMobsimListeners called.
2022-12-31T00:24:22,989  INFO PrepareForMobsimImpl:86 Network seems to be multimodal. Create car-only network which is handed over to PersonPrepareForSim.
2022-12-31T00:24:22,989  INFO NetworkImpl:163  node # 1
2022-12-31T00:24:22,989  INFO NetworkImpl:163  node # 4
2022-12-31T00:24:22,989  INFO NetworkImpl:163  node # 16
2022-12-31T00:24:22,989  INFO NetworkImpl:163  node # 64
2022-12-31T00:24:22,989  INFO NetworkImpl:159  link # 1
2022-12-31T00:24:22,989  INFO NetworkImpl:159  link # 4
2022-12-31T00:24:22,990  INFO NetworkImpl:159  link # 16
2022-12-31T00:24:22,993  INFO NetworkImpl:159  link # 64
2022-12-31T00:24:22,995  INFO Counter:69 [PersonPrepareForSim] handled person # 2
2022-12-31T00:24:22,995  INFO Counter:69 [PersonPrepareForSim] handled person # 1
2022-12-31T00:24:22,995  INFO Counter:69 [PersonPrepareForSim] handled person # 4
2022-12-31T00:24:22,996  INFO Counter:69 [PersonPrepareForSim] handled person # 8
2022-12-31T00:24:22,996  INFO Counter:74 [PersonPrepareForSim] handled person # 10
2022-12-31T00:24:23,009  INFO MobsimListenerManager:49 calling addQueueSimulationListener
2022-12-31T00:24:23,009  INFO MobsimListenerManager:53   assigned class org.matsim.core.mobsim.framework.listeners.MobsimListener to interface org.matsim.vis.snapshotwriters.SnapshotWriterManager
2022-12-31T00:24:23,010  INFO MobsimListenerManager:53   assigned class org.matsim.core.mobsim.framework.listeners.MobsimListener to interface org.matsim.core.mobsim.framework.listeners.MobsimListener
2022-12-31T00:24:23,010  INFO MobsimListenerManager:53   assigned class org.matsim.core.mobsim.framework.listeners.MobsimListener to interface org.matsim.core.mobsim.framework.listeners.MobsimAfterSimStepListener
2022-12-31T00:24:23,010  INFO MobsimListenerManager:53   assigned class org.matsim.core.mobsim.framework.listeners.MobsimListener to interface org.matsim.core.mobsim.framework.listeners.MobsimBeforeCleanupListener
2022-12-31T00:24:23,010  INFO MobsimListenerManager:53   assigned class org.matsim.core.mobsim.framework.listeners.MobsimListener to interface org.matsim.core.mobsim.framework.listeners.MobsimInitializedListener
2022-12-31T00:24:23,011  INFO QSimProvider:122 Added MobsimEngine class org.matsim.core.mobsim.qsim.ActivityEngineDefaultImpl
2022-12-31T00:24:23,011  INFO QSimProvider:128 Added Activityhandler class org.matsim.core.mobsim.qsim.ActivityEngineDefaultImpl
2022-12-31T00:24:23,012  INFO QSimProvider:134 Added DepartureHandler class org.matsim.core.mobsim.qsim.qnetsimengine.VehicularDepartureHandler
2022-12-31T00:24:23,012  INFO QSimProvider:122 Added MobsimEngine class org.matsim.core.mobsim.qsim.qnetsimengine.QNetsimEngineWithThreadpool
2022-12-31T00:24:23,012  INFO QSimProvider:122 Added MobsimEngine class org.matsim.core.mobsim.qsim.DefaultTeleportationEngine
2022-12-31T00:24:23,012  INFO QSimProvider:134 Added DepartureHandler class org.matsim.core.mobsim.qsim.DefaultTeleportationEngine
2022-12-31T00:24:23,012  INFO QSimProvider:140 Added AgentSource class org.matsim.core.mobsim.qsim.agents.PopulationAgentSource
2022-12-31T00:24:23,012  INFO MobsimListenerManager:49 calling addQueueSimulationListener
2022-12-31T00:24:23,012  INFO MobsimListenerManager:53   assigned class org.matsim.core.mobsim.framework.listeners.MobsimListener to interface org.matsim.core.mobsim.qsim.messagequeueengine.MessageQueueEngine
2022-12-31T00:24:23,013  INFO MobsimListenerManager:53   assigned class org.matsim.core.mobsim.framework.listeners.MobsimListener to interface org.matsim.core.mobsim.framework.listeners.MobsimListener
2022-12-31T00:24:23,013  INFO MobsimListenerManager:53   assigned class org.matsim.core.mobsim.framework.listeners.MobsimListener to interface org.matsim.core.mobsim.framework.listeners.MobsimBeforeSimStepListener
2022-12-31T00:24:23,013  INFO QSimProvider:146 Added MobsimListener class org.matsim.core.mobsim.qsim.messagequeueengine.MessageQueueEngine
2022-12-31T00:24:23,015  INFO AbstractQNetsimEngine:427 Assigned 95 nodes and 176 links to QSimEngineRunner #0
2022-12-31T00:24:23,016  INFO AbstractQNetsimEngine:365 SIMULATION (QNetsimEngine) AT 05:58:30 : #links=0 #nodes=1
2022-12-31T00:24:23,016  INFO QSim:553 SIMULATION (NEW QSim) AT 05:58:30 : #Veh=10 lost=0 simT=0.0s realT=0s; (s/r): 0.0
2022-12-31T00:24:23,028  INFO AbstractQNetsimEngine:365 SIMULATION (QNetsimEngine) AT 06:00:00 : #links=9 #nodes=2
2022-12-31T00:24:23,028  INFO QSim:553 SIMULATION (NEW QSim) AT 06:00:00 : #Veh=10 lost=0 simT=90.0s realT=0s; (s/r): Infinity
2022-12-31T00:24:23,326  INFO AbstractQNetsimEngine:365 SIMULATION (QNetsimEngine) AT 07:00:00 : #links=0 #nodes=0
2022-12-31T00:24:23,327  INFO QSim:553 SIMULATION (NEW QSim) AT 07:00:00 : #Veh=4 lost=0 simT=3690.0s realT=0s; (s/r): Infinity
2022-12-31T00:24:23,592  INFO AbstractQNetsimEngine:365 SIMULATION (QNetsimEngine) AT 08:00:00 : #links=0 #nodes=0
2022-12-31T00:24:23,592  INFO QSim:553 SIMULATION (NEW QSim) AT 08:00:00 : #Veh=3 lost=0 simT=7290.0s realT=0s; (s/r): Infinity
2022-12-31T00:24:23,896  INFO AbstractQNetsimEngine:365 SIMULATION (QNetsimEngine) AT 09:00:00 : #links=0 #nodes=0
2022-12-31T00:24:23,897  INFO QSim:553 SIMULATION (NEW QSim) AT 09:00:00 : #Veh=1 lost=0 simT=10890.0s realT=0s; (s/r): Infinity
2022-12-31T00:24:24,455  INFO AbstractQNetsimEngine:365 SIMULATION (QNetsimEngine) AT 10:00:00 : #links=0 #nodes=0
2022-12-31T00:24:24,456  INFO QSim:553 SIMULATION (NEW QSim) AT 10:00:00 : #Veh=1 lost=0 simT=14490.0s realT=1s; (s/r): 14490.0
2022-12-31T00:24:24,766  INFO AbstractQNetsimEngine:365 SIMULATION (QNetsimEngine) AT 11:00:00 : #links=0 #nodes=0
2022-12-31T00:24:24,767  INFO QSim:553 SIMULATION (NEW QSim) AT 11:00:00 : #Veh=1 lost=0 simT=18090.0s realT=1s; (s/r): 18090.0
2022-12-31T00:24:25,033  INFO AbstractQNetsimEngine:365 SIMULATION (QNetsimEngine) AT 12:00:00 : #links=0 #nodes=0
2022-12-31T00:24:25,033  INFO QSim:553 SIMULATION (NEW QSim) AT 12:00:00 : #Veh=1 lost=0 simT=21690.0s realT=2s; (s/r): 10845.0
2022-12-31T00:24:25,194  INFO AbstractController$9:234 ### ITERATION 10 fires after mobsim event
2022-12-31T00:24:25,194  INFO ControlerListenerManagerImpl:248 calling notifyAfterMobsim on org.matsim.analysis.LegTimesControlerListener
2022-12-31T00:24:25,194  INFO Gbl:191 Thread performance: Thread=class org.matsim.core.events.SimStepParallelEventsManagerImpl$ProcessEventsRunnable0  cpu-time=0.4375sec
2022-12-31T00:24:25,197  INFO LegTimesControlerListener:50 [10] average trip (probably: leg) duration is: 191 seconds = 00:03:11
2022-12-31T00:24:25,197  INFO ControlerListenerManagerImpl:248 calling notifyAfterMobsim on org.matsim.core.events.MobsimScopeEventHandling
2022-12-31T00:24:25,197  INFO ControlerListenerManagerImpl:248 calling notifyAfterMobsim on org.matsim.core.scoring.EventsToActivities$1
2022-12-31T00:24:25,197  INFO ControlerListenerManagerImpl:251 [it.10] all ControlerAfterMobsimListeners called.
2022-12-31T00:24:25,197  INFO AbstractController$4:159 ### ITERATION 10 fires scoring event
2022-12-31T00:24:25,197  INFO ControlerListenerManagerImpl:183 calling notifyScoring on org.matsim.core.scoring.PlansScoringImpl
2022-12-31T00:24:25,197  INFO NewScoreAssignerImpl:57 it: 10 msaStart: null
2022-12-31T00:24:25,198  INFO ControlerListenerManagerImpl:194 [it.10] all ControlerScoringListeners called.
2022-12-31T00:24:25,198  INFO AbstractController$5:167 ### ITERATION 10 fires iteration end event
2022-12-31T00:24:25,198  INFO ControlerListenerManagerImpl:160 calling notifyIterationEnds on org.matsim.core.controler.corelisteners.EventsHandlingImpl
2022-12-31T00:24:25,199  INFO EventsManagerImpl:181 removing Event-Handler: org.matsim.core.events.algorithms.EventWriterXML
2022-12-31T00:24:25,199  INFO EventsManagerImpl:181 removing Event-Handler: org.matsim.core.events.algorithms.EventWriterXML
2022-12-31T00:24:25,199  INFO ControlerListenerManagerImpl:160 calling notifyIterationEnds on org.matsim.core.scoring.PlansScoringImpl
2022-12-31T00:24:25,199  INFO ControlerListenerManagerImpl:167 calling notifyIterationEnds on org.matsim.counts.CountsControlerListener
2022-12-31T00:24:25,203  INFO CountSimComparisonTableWriter:93 Writing CountsSimComparison to ./output/ITERS/it.10/10.countscompare.txt
2022-12-31T00:24:25,204  INFO CountSimComparisonTableWriter:134 Writing 'average weekday traffic volume' to ./output/ITERS/it.10/10.countscompareAWTV.txt
2022-12-31T00:24:25,206  INFO ControlerListenerManagerImpl:167 calling notifyIterationEnds on org.matsim.analysis.ModeStatsControlerListener
2022-12-31T00:24:25,206  INFO ModeStatsControlerListener:144 Mode shares over all 20.0 trips found. MainModeIdentifier: class org.matsim.core.router.RoutingModeMainModeIdentifier
2022-12-31T00:24:25,206  INFO ModeStatsControlerListener:151 -- mode share of mode bicycle = 0.2
2022-12-31T00:24:25,206  INFO ModeStatsControlerListener:151 -- mode share of mode car = 0.8
2022-12-31T00:24:25,300  INFO ControlerListenerManagerImpl:167 calling notifyIterationEnds on org.matsim.analysis.ScoreStatsControlerListener
2022-12-31T00:24:25,300  INFO ScoreStatsControlerListener:181 -- avg. score of the executed plan of each agent: 81.58449043212124
2022-12-31T00:24:25,301  INFO ScoreStatsControlerListener:182 -- avg. score of the worst plan of each agent: 81.54658703157415
2022-12-31T00:24:25,301  INFO ScoreStatsControlerListener:183 -- avg. of the avg. plan score per agent: 81.56553873184771
2022-12-31T00:24:25,302  INFO ScoreStatsControlerListener:184 -- avg. score of the best plan of each agent: 81.58449043212124
2022-12-31T00:24:25,360  INFO ControlerListenerManagerImpl:167 calling notifyIterationEnds on org.matsim.analysis.IterationTravelStatsControlerListener
2022-12-31T00:24:25,362  INFO TravelDistanceStats:143 -- average leg distance per plan (executed plans only): 1748.1852074145288 meters
2022-12-31T00:24:25,363  INFO TravelDistanceStats:144 average leg distance per Person (executed plans only): 3496.3704148290576 meters (statistic on all 20 legs which have a finite distance)
2022-12-31T00:24:25,363  INFO TravelDistanceStats:145 -- average trip distance per plan (executed plans only): 1748.1852074145288 meters
2022-12-31T00:24:25,364  INFO TravelDistanceStats:146 average trip distance per Person (executed plans only): 3496.3704148290576 meters (statistic on all 20 trips which have a finite distance)
2022-12-31T00:24:25,364  INFO TravelDistanceStats:147 (TravelDistanceStats takes an average over all legs where the simulation reports travelled (network) distances
2022-12-31T00:24:25,364  INFO TravelDistanceStats:148 (and teleported legs whose route contains a distance.)
2022-12-31T00:24:25,715  INFO ControlerListenerManagerImpl:167 calling notifyIterationEnds on org.matsim.analysis.LegHistogramListener
2022-12-31T00:24:25,718  INFO LegHistogramListener:72 number of legs:	20	100%
2022-12-31T00:24:25,719  INFO LegHistogramListener:79 number of bicycle legs:	4	20.0%
2022-12-31T00:24:25,719  INFO LegHistogramListener:79 number of car legs:	16	80.0%
2022-12-31T00:24:25,913  INFO ControlerListenerManagerImpl:167 calling notifyIterationEnds on org.matsim.analysis.LinkStatsControlerListener
2022-12-31T00:24:25,914  INFO ControlerListenerManagerImpl:171 [it.10] all ControlerIterationEndsListeners called.
2022-12-31T00:24:25,979  INFO AbstractController:181 ### ITERATION 10 ENDS
2022-12-31T00:24:25,979  INFO AbstractController:182 ###################################################
2022-12-31T00:24:25,980  INFO MatsimRuntimeModifications:79 S H U T D O W N   ---   start shutdown.
2022-12-31T00:24:25,981  INFO ControlerListenerManagerImpl:121 calling notifyShutdown on org.matsim.core.controler.corelisteners.EventsHandlingImpl
2022-12-31T00:24:25,981  INFO ControlerListenerManagerImpl:121 calling notifyShutdown on org.matsim.core.controler.corelisteners.DumpDataAtEndImpl
2022-12-31T00:24:25,984  INFO Counter:69 [PopulationWriter] dumped person # 1
2022-12-31T00:24:25,985  INFO Counter:69 [PopulationWriter] dumped person # 2
2022-12-31T00:24:25,985  INFO Counter:69 [PopulationWriter] dumped person # 4
2022-12-31T00:24:25,986  INFO Counter:69 [PopulationWriter] dumped person # 8
2022-12-31T00:24:25,986  INFO PopulationWriter:144 Population written to: ./output/output_plans.xml.gz
2022-12-31T00:24:25,987  INFO Counter:74 [PopulationWriter] dumped person # 10
2022-12-31T00:24:25,989  INFO NetworkWriter:69 Writing network to file: ./output/output_network.xml.gz...
2022-12-31T00:24:26,004  INFO NetworkWriter:72 done.
2022-12-31T00:24:26,016  INFO Config:601 setting context to [file:/C:/Users/ASUS/Desktop/ACADEMIC%20SEM%2008/FYP/MATSim/matsim-14.0/]
2022-12-31T00:24:26,019  INFO Config:601 setting context to [file:/C:/Users/ASUS/Desktop/ACADEMIC%20SEM%2008/FYP/MATSim/matsim-14.0/]
2022-12-31T00:24:26,024  INFO Config:601 setting context to [file:/C:/Users/ASUS/Desktop/ACADEMIC%20SEM%2008/FYP/MATSim/matsim-14.0/]
2022-12-31T00:24:26,028  INFO Config:601 setting context to [file:/C:/Users/ASUS/Desktop/ACADEMIC%20SEM%2008/FYP/MATSim/matsim-14.0/]
2022-12-31T00:24:26,031  INFO Config:601 setting context to [file:/C:/Users/ASUS/Desktop/ACADEMIC%20SEM%2008/FYP/MATSim/matsim-14.0/]
2022-12-31T00:24:26,040  INFO Config:601 setting context to [file:/C:/Users/ASUS/Desktop/ACADEMIC%20SEM%2008/FYP/MATSim/matsim-14.0/]
2022-12-31T00:24:26,043  INFO Config:601 setting context to [file:/C:/Users/ASUS/Desktop/ACADEMIC%20SEM%2008/FYP/MATSim/matsim-14.0/]
2022-12-31T00:24:26,046  INFO Config:601 setting context to [file:/C:/Users/ASUS/Desktop/ACADEMIC%20SEM%2008/FYP/MATSim/matsim-14.0/]
2022-12-31T00:24:26,049  INFO Config:601 setting context to [file:/C:/Users/ASUS/Desktop/ACADEMIC%20SEM%2008/FYP/MATSim/matsim-14.0/]
2022-12-31T00:24:26,053  INFO Config:601 setting context to [file:/C:/Users/ASUS/Desktop/ACADEMIC%20SEM%2008/FYP/MATSim/matsim-14.0/]
2022-12-31T00:24:26,057  INFO Config:601 setting context to [file:/C:/Users/ASUS/Desktop/ACADEMIC%20SEM%2008/FYP/MATSim/matsim-14.0/]
2022-12-31T00:24:26,060  INFO Config:601 setting context to [file:/C:/Users/ASUS/Desktop/ACADEMIC%20SEM%2008/FYP/MATSim/matsim-14.0/]
2022-12-31T00:24:26,064  INFO Config:601 setting context to [file:/C:/Users/ASUS/Desktop/ACADEMIC%20SEM%2008/FYP/MATSim/matsim-14.0/]
2022-12-31T00:24:26,068  INFO Config:601 setting context to [file:/C:/Users/ASUS/Desktop/ACADEMIC%20SEM%2008/FYP/MATSim/matsim-14.0/]
2022-12-31T00:24:26,076  INFO Config:601 setting context to [file:/C:/Users/ASUS/Desktop/ACADEMIC%20SEM%2008/FYP/MATSim/matsim-14.0/]
2022-12-31T00:24:26,079  INFO Config:601 setting context to [file:/C:/Users/ASUS/Desktop/ACADEMIC%20SEM%2008/FYP/MATSim/matsim-14.0/]
2022-12-31T00:24:26,085  INFO Config:601 setting context to [file:/C:/Users/ASUS/Desktop/ACADEMIC%20SEM%2008/FYP/MATSim/matsim-14.0/]
2022-12-31T00:24:26,087  INFO Config:601 setting context to [file:/C:/Users/ASUS/Desktop/ACADEMIC%20SEM%2008/FYP/MATSim/matsim-14.0/]
2022-12-31T00:24:26,098  INFO Config:601 setting context to [file:/C:/Users/ASUS/Desktop/ACADEMIC%20SEM%2008/FYP/MATSim/matsim-14.0/]
2022-12-31T00:24:26,101  INFO Config:601 setting context to [file:/C:/Users/ASUS/Desktop/ACADEMIC%20SEM%2008/FYP/MATSim/matsim-14.0/]
2022-12-31T00:24:26,105  INFO Config:601 setting context to [file:/C:/Users/ASUS/Desktop/ACADEMIC%20SEM%2008/FYP/MATSim/matsim-14.0/]
2022-12-31T00:24:26,108  INFO Config:601 setting context to [file:/C:/Users/ASUS/Desktop/ACADEMIC%20SEM%2008/FYP/MATSim/matsim-14.0/]
2022-12-31T00:24:26,116  INFO Config:601 setting context to [file:/C:/Users/ASUS/Desktop/ACADEMIC%20SEM%2008/FYP/MATSim/matsim-14.0/]
2022-12-31T00:24:26,119  INFO Config:601 setting context to [file:/C:/Users/ASUS/Desktop/ACADEMIC%20SEM%2008/FYP/MATSim/matsim-14.0/]
2022-12-31T00:24:26,122  INFO Config:601 setting context to [file:/C:/Users/ASUS/Desktop/ACADEMIC%20SEM%2008/FYP/MATSim/matsim-14.0/]
2022-12-31T00:24:26,124  INFO Config:601 setting context to [file:/C:/Users/ASUS/Desktop/ACADEMIC%20SEM%2008/FYP/MATSim/matsim-14.0/]
2022-12-31T00:24:26,135  INFO MatsimVehicleWriter:54 about to write vehicles to: ./output/output_vehicles.xml.gz
2022-12-31T00:24:26,135  INFO VehicleWriterV2:63 about to write vehicles to: ./output/output_vehicles.xml.gz
2022-12-31T00:24:26,138  INFO MatsimVehicleWriter:54 about to write vehicles to: ./output/output_allVehicles.xml.gz
2022-12-31T00:24:26,139  INFO VehicleWriterV2:63 about to write vehicles to: ./output/output_allVehicles.xml.gz
2022-12-31T00:24:26,146  INFO HouseholdsWriterV10:66 about to write  households to: ./output/output_households.xml.gz
2022-12-31T00:24:26,148  INFO Counter:74 [HouseholdsWriter] wrote household # 0
2022-12-31T00:24:26,173  INFO ControlerListenerManagerImpl:126 calling notifyShutdown on org.matsim.analysis.ScoreStatsControlerListener
2022-12-31T00:24:26,174  INFO ControlerListenerManagerImpl:126 calling notifyShutdown on org.matsim.analysis.IterationTravelStatsControlerListener
2022-12-31T00:24:26,176  INFO IterationTravelStatsControlerListener:108 Writing all Person and Attributes to personscsv
2022-12-31T00:24:26,182  INFO IterationTravelStatsControlerListener:152 ...done
2022-12-31T00:24:26,182  INFO ControlerListenerManagerImpl:129 all ControlerShutdownListeners called.
2022-12-31T00:24:26,182  INFO MatsimRuntimeModifications:102 S H U T D O W N   ---   shutdown completed.
2022-12-31T00:24:26,182  INFO OutputDirectoryLogging:170 closing the logfile, i.e. messages sent to the logger after this message are not written to the logfile.
