2023-01-02T00:39:29,732  INFO Gbl:63 JVM: 17.0.1; Oracle Corporation; mixed mode, sharing; 64-bit
2023-01-02T00:39:29,733  INFO Gbl:67 OS: Windows 10; 10.0; amd64
2023-01-02T00:39:29,736  INFO Gbl:70 CPU cores: 8
2023-01-02T00:39:29,747  INFO Gbl:71 max. Memory: 994.0MB (1042284544B)
2023-01-02T00:39:29,748  INFO Gbl:109 MATSim-Build: r80b56afa925946d766cb91527373393989f56e81 (2022-04-11 15:06:39)
2023-01-02T00:39:29,757  INFO ControlerListenerManagerImpl:107 calling notifyStartup on org.matsim.guice.DependencyGraphControlerListener
2023-01-02T00:39:29,764  INFO MemoryObserver:41 used RAM: 26 MB  free: 13 MB  total: 40 MB
2023-01-02T00:39:30,346  INFO ControlerListenerManagerImpl:107 calling notifyStartup on org.matsim.counts.CountsControlerListener
2023-01-02T00:39:30,347  INFO ControlerListenerManagerImpl:107 calling notifyStartup on org.matsim.analysis.ModeStatsControlerListener
2023-01-02T00:39:30,352  INFO ControlerListenerManagerImpl:107 calling notifyStartup on org.matsim.analysis.ScoreStatsControlerListener
2023-01-02T00:39:30,354  INFO ControlerListenerManagerImpl:110 all ControlerStartupListeners called.
2023-01-02T00:39:30,359  INFO ControlerUtils:79 config dump before iterations start
2023-01-02T00:39:30,395  INFO ControlerUtils:83 

<?xml version="1.0" encoding="UTF-8"?>
<!DOCTYPE config SYSTEM "http://www.matsim.org/files/dtd/config_v2.dtd">
<config>
	<module name="JDEQSim" >
		<param name="carSize" value="7.5" />
		<param name="endTime" value="undefined" />
		<param name="flowCapacityFactor" value="1.0" />
		<param name="gapTravelSpeed" value="15.0" />
		<param name="minimumInFlowCapacity" value="1800.0" />
		<param name="squeezeTime" value="1800.0" />
		<param name="storageCapacityFactor" value="1.0" />
	</module>
	<module name="ReplanningAnnealer" >
		<!-- Activate the scaling of replanning modules using an annealing approach rather than fixed rates. -->
		<param name="activateAnnealingModule" value="false" />
	</module>
	<module name="TimeAllocationMutator" >
		<!-- Default:true; Defines whether time mutation changes an activity's duration. -->
		<param name="mutationAffectsDuration" value="true" />
		<!-- Default:1800.0; Defines how many seconds a time mutation can maximally shift a time. -->
		<param name="mutationRange" value="1800.0" />
	</module>
	<module name="changeMode" >
		<!-- Defines whether car availability is considered be considered or not. An agent has no car only if it has no license, or never access to a car. Default: true -->
		<param name="ignoreCarAvailability" value="true" />
		<!-- Defines the mode switch behavior. Possible values [fromAllModesToSpecifiedModes, fromSpecifiedModesToSpecifiedModes] Default: fromSpecifiedModesToSpecifiedModes. -->
		<param name="modeSwitchBehavior" value="fromSpecifiedModesToSpecifiedModes" />
		<!-- Defines all the modes available, including chain-based modes, seperated by commas -->
		<param name="modes" value="car,pt" />
	</module>
	<module name="controler" >
		<!-- Compression algorithm to use when writing out data to files. Possible values: [none, gzip, lz4, zst] -->
		<param name="compressionType" value="gzip" />
		<!-- Sets whether graphs showing some analyses should automatically be generated during the simulation. The generation of graphs usually takes a small amount of time that does not have any weight in big simulations, but add a significant overhead in smaller runs or in test cases where the graphical output is not even requested. -->
		<param name="createGraphs" value="true" />
		<!-- true if at the end of a run, plans, network, config etc should be dumped to a file -->
		<param name="dumpDataAtEnd" value="true" />
		<!-- Default=false. If enabled, the router takes travel times needed for turning moves into account. Cannot be used if the (Fast)AStarLandmarks routing or TravelTimeCalculator.separateModes is enabled. -->
		<param name="enableLinkToLinkRouting" value="false" />
		<!-- Default=xml; Specifies the file format for writing events. Currently supported: [xml, pb, json]
		Multiple values can be specified separated by commas (','). -->
		<param name="eventsFileFormat" value="xml" />
		<!-- Default=0. First Iteration of a simulation. -->
		<param name="firstIteration" value="0" />
		<!-- Default=1000. Last Iteration of a simulation. -->
		<param name="lastIteration" value="10" />
		<!-- Defines which mobility simulation will be used. Currently supported: qsim JDEQSim hermes 
		Depending on the chosen mobsim, you'll have to add additional config modules to configure the corresponding mobsim.
		For 'qsim', add a module 'qsim' to the config. -->
		<param name="mobsim" value="qsim" />
		<param name="outputDirectory" value="./output" />
		<!-- Possible values: failIfDirectoryExists, overwriteExistingFiles, deleteDirectoryIfExists -->
		<param name="overwriteFiles" value="failIfDirectoryExists" />
		<!-- The type of routing (least cost path) algorithm used, may have the values: [Dijkstra, AStarLandmarks, FastDijkstra, FastAStarLandmarks, SpeedyALT] -->
		<param name="routingAlgorithmType" value="AStarLandmarks" />
		<!-- An identifier for the current run which is used as prefix for output files and mentioned in output xml files etc. -->
		<param name="runId" value="null" />
		<!-- Comma-separated list of visualizer output file formats. `transims', `googleearth', and `otfvis'. -->
		<param name="snapshotFormat" value="" />
		<!-- iterationNumber % writeEventsInterval == 0 defines in which iterations events are written to a file. `0' disables events writing completely. -->
		<param name="writeEventsInterval" value="50" />
		<!-- iterationNumber % writePlansInterval == 0 defines (hopefully) in which iterations plans are written to a file. `0' disables plans writing completely.  Some plans in early iterations are always written -->
		<param name="writePlansInterval" value="50" />
		<!-- iterationNumber % writeSnapshotsInterval == 0 defines in which iterations snapshots are written to a file. `0' disables snapshots writing completely -->
		<param name="writeSnapshotsInterval" value="1" />
		<!-- iterationNumber % writeEventsInterval == 0 defines in which iterations trips CSV are written to a file. `0' disables trips writing completely. -->
		<param name="writeTripsInterval" value="50" />
	</module>
	<module name="counts" >
		<!-- Transport modes that will be respected for the counts comparison. 'car' is default, which includes also bussed from the pt simulation module. Use this parameter in combination with 'filterModes' = true! -->
		<param name="analyzedModes" value="car" />
		<!-- Specifies over how many iterations the link volumes should be averaged that are used for the counts comparison. Use 1 or 0 to only use the link volumes of a single iteration. This values cannot be larger than the value specified for writeCountsInterval -->
		<param name="averageCountsOverIterations" value="5" />
		<!-- factor by which to re-scale the simulated values.  necessary when simulation runs with something different from 100%.  needs to be adapted manually -->
		<param name="countsScaleFactor" value="1.0" />
		<!-- distance to distanceFilterCenterNode to include counting stations. The unit of distance is the Euclidean distance implied by the coordinate system -->
		<param name="distanceFilter" value="null" />
		<!-- node id for center node of distance filter -->
		<param name="distanceFilterCenterNode" value="null" />
		<!-- If true, link counts from legs performed on modes not included in the 'analyzedModes' parameter are ignored. -->
		<param name="filterModes" value="false" />
		<!-- The Coordinates Reference System in which the coordinates are expressed in the input file. At import, the coordinates will be converted to the coordinate system defined in "global", and willbe converted back at export. If not specified, no conversion happens. -->
		<param name="inputCRS" value="null" />
		<!-- input file name to counts package -->
		<param name="inputCountsFile" value="null" />
		<!-- possible values: `html', `kml', `txt', `all' -->
		<param name="outputformat" value="txt" />
		<!-- Specifies how often the counts comparison should be calculated and written. -->
		<param name="writeCountsInterval" value="10" />
	</module>
	<module name="facilities" >
		<!-- This defines how facilities should be created. Possible values: none fromFile setInScenario onePerActivityLinkInPlansFile onePerActivityLinkInPlansFileExceptWhenCoordinatesAreGiven onePerActivityLocationInPlansFile  -->
		<param name="facilitiesSource" value="none" />
		<!-- A prefix to be used for auto-generated IDs. -->
		<param name="idPrefix" value="f_auto_" />
		<!-- The Coordinates Reference System in which the coordinates are expressed in the input file. At import, the coordinates will be converted to the coordinate system defined in "global", and willbe converted back at export. If not specified, no conversion happens. -->
		<param name="inputCRS" value="null" />
		<param name="inputFacilitiesFile" value="null" />
		<param name="inputFacilityAttributesFile" value="null" />
		<param name="insistingOnUsingDeprecatedFacilitiesAttributeFile" value="false" />
	</module>
	<module name="global" >
		<param name="coordinateSystem" value="Atlantis" />
		<param name="defaultDelimiter" value=";" />
		<param name="insistingOnDeprecatedConfigVersion" value="true" />
		<!-- "global" number of threads.  This number is used, e.g., for replanning, but NOT in QSim.  This can typically be set to as many cores as you have available, or possibly even slightly more. -->
		<param name="numberOfThreads" value="2" />
		<param name="randomSeed" value="4711" />
	</module>
	<module name="hermes" >
		<!-- Simulation End Time -->
		<param name="endTime" value="30:00:00" />
		<param name="flowCapacityFactor" value="1.0" />
		<param name="mainMode" value="car" />
		<param name="storageCapacityFactor" value="1.0" />
		<!-- time in seconds.  Time after which the frontmost vehicle on a link is called `stuck' if it does not move. Set to Integer.MAX_VALUE to disable this behavior -->
		<param name="stuckTime" value="10" />
		<!-- treats PT as deterministic. PT vehicles will run with a steady speed. Should be used with separate network layers for PT and other network modes. -->
		<param name="useDeterministicPt" value="false" />
	</module>
	<module name="households" >
		<param name="inputFile" value="null" />
		<param name="inputHouseholdAttributesFile" value="null" />
		<param name="insistingOnUsingDeprecatedHouseholdsAttributeFile" value="false" />
	</module>
	<module name="linkStats" >
		<!-- Specifies over how many iterations the link volumes should be averaged that are used for the link statistics. Use 1 or 0 to only use the link volumes of a single iteration. This values cannot be larger than the value specified for writeLinkStatsInterval -->
		<param name="averageLinkStatsOverIterations" value="5" />
		<!-- Specifies how often the link stats should be calculated and written. Use 0 to disable the generation of link stats. -->
		<param name="writeLinkStatsInterval" value="50" />
	</module>
	<module name="network" >
		<!-- The Coordinates Reference System in which the coordinates are expressed in the input file. At import, the coordinates will be converted to the coordinate system defined in "global", and willbe converted back at export. If not specified, no conversion happens. -->
		<param name="inputCRS" value="null" />
		<param name="inputChangeEventsFile" value="null" />
		<param name="inputNetworkFile" value="network.xml" />
		<param name="laneDefinitionsFile" value="null" />
		<param name="timeVariantNetwork" value="false" />
	</module>
	<module name="parallelEventHandling" >
		<!-- Estimated number of events during mobsim run. An optional optimization hint for the framework. -->
		<param name="estimatedNumberOfEvents" value="null" />
		<!-- Size of the events Queue. Increase for very large scenarios -->
		<param name="eventsQueueSize" value="131072" />
		<!-- Number of threads for parallel events handler. _null_ means the framework decides by itself. 0 is currently not possible. -->
		<param name="numberOfThreads" value="null" />
		<!-- If enabled, each event handler is assigned to its own thread. Note that enabling this feature disabled the numberOfThreads option! This feature is still experimental! -->
		<param name="oneThreadPerHandler" value="false" />
		<!-- If enabled, it is ensured that all events that are created during a time step of the mobility simulation are processed before the next time step is simulated. E.g. neccessary when within-day replanning is used. -->
		<param name="synchronizeOnSimSteps" value="true" />
	</module>
	<module name="planCalcScore" >
		<!-- logit model scale parameter. default: 1.  Has name and default value for historical reasons (see Bryan Raney's phd thesis). -->
		<param name="BrainExpBeta" value="1.0" />
		<param name="PathSizeLogitBeta" value="1.0" />
		<!-- fraction of iterations at which MSA score averaging is started. The matsim theory department suggests to use this together with switching off choice set innovation (where a similar switch exists), but it has not been tested yet. -->
		<param name="fractionOfIterationsToStartScoreMSA" value="null" />
		<!-- new_score = (1-learningRate)*old_score + learningRate * score_from_mobsim.  learning rates close to zero emulate score averaging, but slow down initial convergence -->
		<param name="learningRate" value="1.0" />
		<!-- There used to be a plateau between duration=0 and duration=zeroUtilityDuration. This caused durations to evolve to zero once they were below zeroUtilityDuration, causing problems.  Only use this switch if you need to be backwards compatible with some old results.  (changed nov'13) -->
		<param name="usingOldScoringBelowZeroUtilityDuration" value="false" />
		<!-- write a plans file in each iteration directory which contains what each agent actually did, and the score it received. -->
		<param name="writeExperiencedPlans" value="false" />
		<parameterset type="scoringParameters" >
			<param name="earlyDeparture" value="-0.0" />
			<param name="lateArrival" value="-18.0" />
			<param name="marginalUtilityOfMoney" value="1.0" />
			<param name="performing" value="6.0" />
			<param name="subpopulation" value="null" />
			<param name="utilityOfLineSwitch" value="-1.0" />
			<param name="waiting" value="-0.0" />
			<param name="waitingPt" value="-6.0" />
			<parameterset type="activityParams" >
				<param name="activityType" value="dummy" />
				<param name="closingTime" value="undefined" />
				<param name="earliestEndTime" value="undefined" />
				<param name="latestStartTime" value="undefined" />
				<param name="minimalDuration" value="undefined" />
				<param name="openingTime" value="undefined" />
				<param name="priority" value="1.0" />
				<param name="scoringThisActivityAtAll" value="true" />
				<!-- typical duration of activity.  needs to be defined and non-zero.  in sec. -->
				<param name="typicalDuration" value="02:00:00" />
				<!-- method to compute score at typical duration.  Options: | uniform | relative | Use uniform for backwards compatibility (all activities same score; higher proba to drop long acts). -->
				<param name="typicalDurationScoreComputation" value="relative" />
			</parameterset>
			<parameterset type="activityParams" >
				<param name="activityType" value="car interaction" />
				<param name="closingTime" value="undefined" />
				<param name="earliestEndTime" value="undefined" />
				<param name="latestStartTime" value="undefined" />
				<param name="minimalDuration" value="undefined" />
				<param name="openingTime" value="undefined" />
				<param name="priority" value="1.0" />
				<param name="scoringThisActivityAtAll" value="false" />
				<param name="typicalDuration" value="undefined" />
				<param name="typicalDurationScoreComputation" value="relative" />
			</parameterset>
			<parameterset type="activityParams" >
				<param name="activityType" value="pt interaction" />
				<param name="closingTime" value="undefined" />
				<param name="earliestEndTime" value="undefined" />
				<param name="latestStartTime" value="undefined" />
				<param name="minimalDuration" value="undefined" />
				<param name="openingTime" value="undefined" />
				<param name="priority" value="1.0" />
				<param name="scoringThisActivityAtAll" value="false" />
				<param name="typicalDuration" value="undefined" />
				<param name="typicalDurationScoreComputation" value="relative" />
			</parameterset>
			<parameterset type="activityParams" >
				<param name="activityType" value="bike interaction" />
				<param name="closingTime" value="undefined" />
				<param name="earliestEndTime" value="undefined" />
				<param name="latestStartTime" value="undefined" />
				<param name="minimalDuration" value="undefined" />
				<param name="openingTime" value="undefined" />
				<param name="priority" value="1.0" />
				<param name="scoringThisActivityAtAll" value="false" />
				<param name="typicalDuration" value="undefined" />
				<param name="typicalDurationScoreComputation" value="relative" />
			</parameterset>
			<parameterset type="activityParams" >
				<param name="activityType" value="drt interaction" />
				<param name="closingTime" value="undefined" />
				<param name="earliestEndTime" value="undefined" />
				<param name="latestStartTime" value="undefined" />
				<param name="minimalDuration" value="undefined" />
				<param name="openingTime" value="undefined" />
				<param name="priority" value="1.0" />
				<param name="scoringThisActivityAtAll" value="false" />
				<param name="typicalDuration" value="undefined" />
				<param name="typicalDurationScoreComputation" value="relative" />
			</parameterset>
			<parameterset type="activityParams" >
				<param name="activityType" value="taxi interaction" />
				<param name="closingTime" value="undefined" />
				<param name="earliestEndTime" value="undefined" />
				<param name="latestStartTime" value="undefined" />
				<param name="minimalDuration" value="undefined" />
				<param name="openingTime" value="undefined" />
				<param name="priority" value="1.0" />
				<param name="scoringThisActivityAtAll" value="false" />
				<param name="typicalDuration" value="undefined" />
				<param name="typicalDurationScoreComputation" value="relative" />
			</parameterset>
			<parameterset type="activityParams" >
				<param name="activityType" value="other interaction" />
				<param name="closingTime" value="undefined" />
				<param name="earliestEndTime" value="undefined" />
				<param name="latestStartTime" value="undefined" />
				<param name="minimalDuration" value="undefined" />
				<param name="openingTime" value="undefined" />
				<param name="priority" value="1.0" />
				<param name="scoringThisActivityAtAll" value="false" />
				<param name="typicalDuration" value="undefined" />
				<param name="typicalDurationScoreComputation" value="relative" />
			</parameterset>
			<parameterset type="activityParams" >
				<param name="activityType" value="walk interaction" />
				<param name="closingTime" value="undefined" />
				<param name="earliestEndTime" value="undefined" />
				<param name="latestStartTime" value="undefined" />
				<param name="minimalDuration" value="undefined" />
				<param name="openingTime" value="undefined" />
				<param name="priority" value="1.0" />
				<param name="scoringThisActivityAtAll" value="false" />
				<param name="typicalDuration" value="undefined" />
				<param name="typicalDurationScoreComputation" value="relative" />
			</parameterset>
			<parameterset type="activityParams" >
				<param name="activityType" value="h" />
				<param name="closingTime" value="undefined" />
				<param name="earliestEndTime" value="undefined" />
				<param name="latestStartTime" value="undefined" />
				<param name="minimalDuration" value="08:00:00" />
				<param name="openingTime" value="undefined" />
				<param name="priority" value="1.0" />
				<param name="scoringThisActivityAtAll" value="true" />
				<param name="typicalDuration" value="12:00:00" />
				<param name="typicalDurationScoreComputation" value="relative" />
			</parameterset>
			<parameterset type="activityParams" >
				<param name="activityType" value="w" />
				<param name="closingTime" value="18:00:00" />
				<param name="earliestEndTime" value="undefined" />
				<param name="latestStartTime" value="09:00:00" />
				<param name="minimalDuration" value="06:00:00" />
				<param name="openingTime" value="07:00:00" />
				<param name="priority" value="1.0" />
				<param name="scoringThisActivityAtAll" value="true" />
				<param name="typicalDuration" value="08:00:00" />
				<param name="typicalDurationScoreComputation" value="relative" />
			</parameterset>
			<parameterset type="activityParams" >
				<param name="activityType" value="bicycle interaction" />
				<param name="closingTime" value="undefined" />
				<param name="earliestEndTime" value="undefined" />
				<param name="latestStartTime" value="undefined" />
				<param name="minimalDuration" value="undefined" />
				<param name="openingTime" value="undefined" />
				<param name="priority" value="1.0" />
				<param name="scoringThisActivityAtAll" value="false" />
				<param name="typicalDuration" value="undefined" />
				<param name="typicalDurationScoreComputation" value="relative" />
			</parameterset>
			<parameterset type="activityParams" >
				<param name="activityType" value="ride interaction" />
				<param name="closingTime" value="undefined" />
				<param name="earliestEndTime" value="undefined" />
				<param name="latestStartTime" value="undefined" />
				<param name="minimalDuration" value="undefined" />
				<param name="openingTime" value="undefined" />
				<param name="priority" value="1.0" />
				<param name="scoringThisActivityAtAll" value="false" />
				<param name="typicalDuration" value="undefined" />
				<param name="typicalDurationScoreComputation" value="relative" />
			</parameterset>
			<parameterset type="modeParams" >
				<!-- [utils] alternative-specific constant.  Normally per trip, but that is probably buggy for multi-leg trips. -->
				<param name="constant" value="0.0" />
				<!-- [unit_of_money/day] Fixed cost of mode, per day. -->
				<param name="dailyMonetaryConstant" value="0.0" />
				<!-- [utils] daily utility constant. default=0 to be backwards compatible -->
				<param name="dailyUtilityConstant" value="0.0" />
				<!-- [utils/m] utility of traveling (e.g. walking or driving) per m, normally negative.  this is on top of the time (dis)utility. -->
				<param name="marginalUtilityOfDistance_util_m" value="0.0" />
				<!-- [utils/hr] additional marginal utility of traveling.  normally negative.  this comes on top of the opportunity cost of time -->
				<param name="marginalUtilityOfTraveling_util_hr" value="-6.0" />
				<param name="mode" value="car" />
				<!-- [unit_of_money/m] conversion of distance into money. Normally negative. -->
				<param name="monetaryDistanceRate" value="0.0" />
			</parameterset>
			<parameterset type="modeParams" >
				<param name="constant" value="0.0" />
				<param name="dailyMonetaryConstant" value="0.0" />
				<param name="dailyUtilityConstant" value="0.0" />
				<param name="marginalUtilityOfDistance_util_m" value="0.0" />
				<param name="marginalUtilityOfTraveling_util_hr" value="-6.0" />
				<param name="mode" value="pt" />
				<param name="monetaryDistanceRate" value="0.0" />
			</parameterset>
			<parameterset type="modeParams" >
				<param name="constant" value="0.0" />
				<param name="dailyMonetaryConstant" value="0.0" />
				<param name="dailyUtilityConstant" value="0.0" />
				<param name="marginalUtilityOfDistance_util_m" value="0.0" />
				<param name="marginalUtilityOfTraveling_util_hr" value="-6.0" />
				<param name="mode" value="walk" />
				<param name="monetaryDistanceRate" value="0.0" />
			</parameterset>
			<parameterset type="modeParams" >
				<param name="constant" value="0.0" />
				<param name="dailyMonetaryConstant" value="0.0" />
				<param name="dailyUtilityConstant" value="0.0" />
				<param name="marginalUtilityOfDistance_util_m" value="0.0" />
				<param name="marginalUtilityOfTraveling_util_hr" value="-6.0" />
				<param name="mode" value="bike" />
				<param name="monetaryDistanceRate" value="0.0" />
			</parameterset>
			<parameterset type="modeParams" >
				<param name="constant" value="0.0" />
				<param name="dailyMonetaryConstant" value="0.0" />
				<param name="dailyUtilityConstant" value="0.0" />
				<param name="marginalUtilityOfDistance_util_m" value="0.0" />
				<param name="marginalUtilityOfTraveling_util_hr" value="-6.0" />
				<param name="mode" value="ride" />
				<param name="monetaryDistanceRate" value="0.0" />
			</parameterset>
			<parameterset type="modeParams" >
				<param name="constant" value="0.0" />
				<param name="dailyMonetaryConstant" value="0.0" />
				<param name="dailyUtilityConstant" value="0.0" />
				<param name="marginalUtilityOfDistance_util_m" value="0.0" />
				<param name="marginalUtilityOfTraveling_util_hr" value="-6.0" />
				<param name="mode" value="other" />
				<param name="monetaryDistanceRate" value="0.0" />
			</parameterset>
			<parameterset type="modeParams" >
				<param name="constant" value="0.0" />
				<param name="dailyMonetaryConstant" value="0.0" />
				<param name="dailyUtilityConstant" value="0.0" />
				<param name="marginalUtilityOfDistance_util_m" value="0.0" />
				<param name="marginalUtilityOfTraveling_util_hr" value="-6.0" />
				<param name="mode" value="bicycle" />
				<param name="monetaryDistanceRate" value="0.0" />
			</parameterset>
		</parameterset>
	</module>
	<module name="plans" >
		<!-- String: minOfDurationAndEndTime tryEndTimeThenDuration endTimeOnly. Anything besides minOfDurationAndEndTime will internally use a different (simpler) version of the TimeAllocationMutator. -->
		<param name="activityDurationInterpretation" value="tryEndTimeThenDuration" />
		<!-- Possible values: reject, useMainModeIdentifier -->
		<param name="handlingOfPlansWithoutRoutingMode" value="reject" />
		<!-- The Coordinates Reference System in which the coordinates are expressed in the input file. At import, the coordinates will be converted to the coordinate system defined in "global", and willbe converted back at export. If not specified, no conversion happens. -->
		<param name="inputCRS" value="null" />
		<param name="inputPersonAttributesFile" value="null" />
		<param name="inputPlansFile" value="plans.xml" />
		<param name="insistingOnUsingDeprecatedPersonAttributeFile" value="false" />
		<!-- Defines how routes are stored in memory. Currently supported: LinkNetworkRoute, CompressedNetworkRoute. -->
		<param name="networkRouteType" value="LinkNetworkRoute" />
		<!-- (not tested) will remove plan attributes that are presumably not used, such as activityStartTime. default=false. Use with Caution! -->
		<param name="removingUnnecessaryPlanAttributes" value="false" />
		<!-- Defines how departure times are interpreted in rerouting applications. If set to 'ignoreDelays', the departure time of a trip when routing along a plan will always be the nominal (plan-based) activity end time. If set to 'shiftActivityEndTimes', routing along a plan will accumulate travel times and shift activity end times if necessary -->
		<param name="tripDurationHandling" value="ignoreDelays" />
	</module>
	<module name="planscalcroute" >
		<!-- Defines how access and egress to main mode is simulated. Either of [none, accessEgressModeToLink, walkConstantTimeToLink, accessEgressModeToLinkPlusTimeConstant], Current default=none which means no access or egress trips are simulated. -->
		<param name="accessEgressType" value="none" />
		<!-- Some typical teleportation routing params are set by default, such as for walk and bike.  Setting this switch to "true" will clear them.  Note that this will also clear settings for helper modes such as for non_network_walk -->
		<param name="clearDefaultTeleportedModeParams" value="false" />
		<!-- All the modes for which the router is supposed to generate network routes (like car) -->
		<param name="networkModes" value="car,bicycle" />
		<!-- strength of the randomness for the utility of money in routing under toll.  Leads to Pareto-optimal route with randomly drawn money-vs-other-attributes tradeoff. Technically the width parameter of a log-normal distribution. 3.0 seems to be a good value.  -->
		<param name="routingRandomness" value="3.0" />
		<parameterset type="teleportedModeParameters" >
			<param name="beelineDistanceFactor" value="1.3" />
			<param name="mode" value="bike" />
			<!-- Free-speed factor for a teleported mode. Travel time = teleportedModeFreespeedFactor * <freespeed car travel time>. Insert a line like this for every such mode. Please do not set teleportedModeFreespeedFactor as well as teleportedModeSpeed for the same mode, but if you do, +teleportedModeFreespeedFactor wins over teleportedModeSpeed. -->
			<param name="teleportedModeFreespeedFactor" value="null" />
			<!-- Speed for a teleported mode. Travel time = (<beeline distance> * beelineDistanceFactor) / teleportedModeSpeed. Insert a line like this for every such mode. -->
			<param name="teleportedModeSpeed" value="4.166666666666667" />
		</parameterset>
		<parameterset type="teleportedModeParameters" >
			<param name="beelineDistanceFactor" value="1.3" />
			<param name="mode" value="walk" />
			<param name="teleportedModeFreespeedFactor" value="null" />
			<param name="teleportedModeSpeed" value="0.8333333333333333" />
		</parameterset>
		<parameterset type="teleportedModeParameters" >
			<param name="beelineDistanceFactor" value="1.3" />
			<param name="mode" value="non_network_walk" />
			<param name="teleportedModeFreespeedFactor" value="null" />
			<param name="teleportedModeSpeed" value="0.8333333333333333" />
		</parameterset>
		<parameterset type="teleportedModeParameters" >
			<param name="beelineDistanceFactor" value="1.3" />
			<param name="mode" value="ride" />
			<param name="teleportedModeFreespeedFactor" value="1.0" />
			<param name="teleportedModeSpeed" value="null" />
		</parameterset>
		<parameterset type="teleportedModeParameters" >
			<param name="beelineDistanceFactor" value="1.3" />
			<param name="mode" value="pt" />
			<param name="teleportedModeFreespeedFactor" value="2.0" />
			<param name="teleportedModeSpeed" value="null" />
		</parameterset>
	</module>
	<module name="ptCounts" >
		<!-- factor by which to re-scale the simulated values.  necessary when simulation runs with something different from 100%.  needs to be adapted manually -->
		<param name="countsScaleFactor" value="1.0" />
		<!-- distance to distanceFilterCenterNode to include counting stations. The unit of distance is the Euclidean distance implied by the coordinate system -->
		<param name="distanceFilter" value="null" />
		<!-- node id for center node of distance filter -->
		<param name="distanceFilterCenterNode" value="null" />
		<!-- input file containing the alighting (getting off) counts for pt -->
		<param name="inputAlightCountsFile" value="null" />
		<!-- input file containing the boarding (getting on) counts for pt -->
		<param name="inputBoardCountsFile" value="null" />
		<!-- input file containing the occupancy counts for pt -->
		<param name="inputOccupancyCountsFile" value="null" />
		<!-- possible values: `html', `kml', `txt', `all' -->
		<param name="outputformat" value="null" />
		<!-- every how many iterations (starting with 0) counts comparisons are generated -->
		<param name="ptCountsInterval" value="10" />
	</module>
	<module name="qsim" >
		<param name="endTime" value="undefined" />
		<!-- If set to withLinkAttributes snapshots will only be generated for links which include generateSnapshotForLink as attribute key. Default is no filtering. -->
		<param name="filterSnapshots" value="no" />
		<param name="flowCapacityFactor" value="1.0" />
		<!-- decides if waiting vehicles enter the network after or before the already driving vehicles were moved. Default: false -->
		<param name="insertingWaitingVehiclesBeforeDrivingVehicles" value="true" />
		<!-- If link dynamics is set as SeepageQ, set to false if all seep modes should perform seepage. Default is true (better option). -->
		<param name="isRestrictingSeepage" value="true" />
		<!-- If link dynamics is set as SeepageQ, set to true if seep mode do not consumes any space on the link. Default is false. -->
		<param name="isSeepModeStorageFree" value="false" />
		<!-- default: FIFO; options: FIFO PassingQ SeepageQ -->
		<param name="linkDynamics" value="PassingQ" />
		<!-- The (initial) width of the links of the network. Use positive floating point values. This is used only for visualisation. -->
		<param name="linkWidth" value="30.0" />
		<!-- [comma-separated list] Defines which modes are congested modes. Technically, these are the modes that the departure handler of the netsimengine handles.  Effective cell size, effective lane width, flow capacity factor, and storage capacity factor need to be set with diligence.  Need to be vehicular modes to make sense. -->
		<param name="mainMode" value="bicycle,car" />
		<!-- Shortens a link in the visualization, i.e. its start and end point are moved into towards the center. Does not affect traffic flow.  -->
		<param name="nodeOffset" value="0.0" />
		<!-- Number of threads used for the QSim.  Note that this setting is independent from the "global" threads setting.  In contrast to earlier versions, the non-parallel special version is no longer there. -->
		<param name="numberOfThreads" value="1" />
		<!-- Boolean. `true': stuck vehicles are removed, aborting the plan; `false': stuck vehicles are forced into the next link. `false' is probably the better choice. -->
		<param name="removeStuckVehicles" value="false" />
		<!-- If link dynamics is set as SeepageQ, set a seep mode. Default is bike. -->
		<param name="seepMode" value="bike" />
		<!-- Possible values: minOfEndtimeAndMobsimFinished, onlyUseEndtime -->
		<param name="simEndtimeInterpretation" value="null" />
		<!-- Options: maxOfStarttimeAndEarliestActivityEnd onlyUseStarttime  -->
		<param name="simStarttimeInterpretation" value="maxOfStarttimeAndEarliestActivityEnd" />
		<!-- snapshotStyle. One of: equiDist queue withHoles withHolesAndShowHoles kinematicWaves  -->
		<param name="snapshotStyle" value="equiDist" />
		<param name="snapshotperiod" value="00:00:00" />
		<param name="startTime" value="undefined" />
		<param name="storageCapacityFactor" value="1.0" />
		<!-- time in seconds.  Time after which the frontmost vehicle on a link is called `stuck' if it does not move. -->
		<param name="stuckTime" value="10.0" />
		<param name="timeStepSize" value="00:00:01" />
		<!-- options: queue withHoles kinematicWaves  -->
		<param name="trafficDynamics" value="kinematicWaves" />
		<!-- Set this parameter to true if lanes should be used, false if not. -->
		<param name="useLanes" value="false" />
		<!-- If a route does not reference a vehicle, agents will use the vehicle with the same id as their own. -->
		<param name="usePersonIdForMissingVehicleId" value="true" />
		<!-- If false, the qsim accumulates fractional flows up to one flow unit in every time step.  If true, flows are updated only if an agent wants to enter the link or an agent is added to buffer. Default is true. -->
		<param name="usingFastCapacityUpdate" value="true" />
		<!-- Defines what happens if an agent wants to depart, but the specified vehicle is not available. One of: teleport wait exception  -->
		<param name="vehicleBehavior" value="teleport" />
		<!-- If vehicles should all be the same default vehicle, or come from the vehicles file, or something else.  Possible values:  defaultVehicle modeVehicleTypesFromVehiclesData fromVehiclesData -->
		<param name="vehiclesSource" value="modeVehicleTypesFromVehiclesData" />
	</module>
	<module name="strategy" >
		<!-- the external executable will be called with a config file as argument.  This is the pathname to a possible skeleton config, to which additional information will be added.  Can be null. -->
		<param name="ExternalExeConfigTemplate" value="null" />
		<!-- time out value (in seconds) after which matsim will consider the external strategy as failed -->
		<param name="ExternalExeTimeOut" value="3600" />
		<!-- root directory for temporary files generated by the external executable. Provided as a service; I don't think this is used by MATSim. -->
		<param name="ExternalExeTmpFileRootDir" value="null" />
		<!-- fraction of iterations where innovative strategies are switched off.  Something like 0.8 should be good.  E.g. if you run from iteration 400 to iteration 500, innovation is switched off at iteration 480 -->
		<param name="fractionOfIterationsToDisableInnovation" value="Infinity" />
		<!-- maximum number of plans per agent.  ``0'' means ``infinity''.  Currently (2010), ``5'' is a good number -->
		<param name="maxAgentPlanMemorySize" value="5" />
		<!-- strategyName of PlanSelector for plans removal.  Possible defaults: WorstPlanSelector SelectRandom SelectExpBetaForRemoval ChangeExpBetaForRemoval PathSizeLogitSelectorForRemoval . The current default, WorstPlanSelector is not a good choice from a discrete choice theoretical perspective. Alternatives, however, have not been systematically tested. kai, feb'12 -->
		<param name="planSelectorForRemoval" value="WorstPlanSelector" />
		<parameterset type="strategysettings" >
			<!-- iteration after which strategy will be disabled.  most useful for ``innovative'' strategies (new routes, new times, ...). Normally, better use fractionOfIterationsToDisableInnovation -->
			<param name="disableAfterIteration" value="-1" />
			<!-- path to external executable (if applicable) -->
			<param name="executionPath" value="null" />
			<!-- strategyName of strategy.  Possible default names: SelectRandom BestScore KeepLastSelected ChangeExpBeta SelectExpBeta SelectPathSizeLogit      (selectors), ReRouteTimeAllocationMutatorTimeAllocationMutator_ReRouteChangeSingleTripModeChangeTripModeSubtourModeChoice (innovative strategies). -->
			<param name="strategyName" value="BestScore" />
			<!-- subpopulation to which the strategy applies. "null" refers to the default population, that is, the set of persons for which no explicit subpopulation is defined (ie no subpopulation attribute) -->
			<param name="subpopulation" value="null" />
			<!-- weight of a strategy: for each agent, a strategy will be selected with a probability proportional to its weight -->
			<param name="weight" value="0.9" />
		</parameterset>
		<parameterset type="strategysettings" >
			<param name="disableAfterIteration" value="-1" />
			<param name="executionPath" value="null" />
			<param name="strategyName" value="ReRoute" />
			<param name="subpopulation" value="null" />
			<param name="weight" value="0.1" />
		</parameterset>
	</module>
	<module name="subtourModeChoice" >
		<!-- Only for backwards compatibility.  Defines if only trips from modes list should change mode, or all trips.  Options: fromAllModesToSpecifiedModes fromSpecifiedModesToSpecifiedModes  -->
		<param name="behavior" value="fromSpecifiedModesToSpecifiedModes" />
		<!-- Defines the chain-based modes, seperated by commas -->
		<param name="chainBasedModes" value="car,bike" />
		<!-- Defines whether car availability must be considered or not. A agent has no car only if it has no license, or never access to a car -->
		<param name="considerCarAvailability" value="false" />
		<!-- Defines all the modes available, including chain-based modes, seperated by commas -->
		<param name="modes" value="car,pt,bike,walk" />
	</module>
	<module name="transit" >
		<!-- The Coordinates Reference System in which the coordinates are expressed in the input file. At import, the coordinates will be converted to the coordinate system defined in "global", and willbe converted back at export. If not specified, no conversion happens. -->
		<param name="inputScheduleCRS" value="null" />
		<param name="insistingOnUsingDeprecatedAttributeFiles" value="false" />
		<!-- The type of transit routing algorithm used, may have the values: [DijkstraBased, SwissRailRaptor] -->
		<param name="routingAlgorithmType" value="SwissRailRaptor" />
		<!-- Optional input file containing additional attributes for transit lines, stored as ObjectAttributes. -->
		<param name="transitLinesAttributesFile" value="null" />
		<!-- Comma-separated list of transportation modes that are handled as transit. Defaults to 'pt'. -->
		<param name="transitModes" value="pt" />
		<!-- Input file containing the transit schedule to be simulated. -->
		<param name="transitScheduleFile" value="null" />
		<!-- Optional input file containing additional attributes for transit stop facilities, stored as ObjectAttributes. -->
		<param name="transitStopsAttributesFile" value="null" />
		<!-- Set this parameter to true if transit should be simulated, false if not. -->
		<param name="useTransit" value="false" />
		<param name="usingTransitInMobsim" value="true" />
		<!-- Input file containing the vehicles used by the departures in the transit schedule. -->
		<param name="vehiclesFile" value="null" />
	</module>
	<module name="transitRouter" >
		<!-- additional time the router allocates when a line switch happens. Can be interpreted as a 'safety' time that agents need to safely transfer from one line to another -->
		<param name="additionalTransferTime" value="0.0" />
		<!-- Factor with which direct walk generalized cost is multiplied before it is compared to the pt generalized cost.  Set to a very high value to reduce direct walk results. -->
		<param name="directWalkFactor" value="1.0" />
		<!-- step size to increase searchRadius if no stops are found -->
		<param name="extensionRadius" value="200.0" />
		<!-- maximum beeline distance between stops that agents could transfer to by walking -->
		<param name="maxBeelineWalkConnectionDistance" value="100.0" />
		<!-- the radius in which stop locations are searched, given a start or target coordinate -->
		<param name="searchRadius" value="1000.0" />
	</module>
	<module name="travelTimeCalculator" >
		<!-- (only for backwards compatibility; only used if separateModes==false && + filterModes==true)  Transport modes that will be respected by the travel time collector. 'car' is default which includes also buses from the pt simulation module. -->
		<param name="analyzedModes" value="car,bicycle" />
		<param name="calculateLinkToLinkTravelTimes" value="false" />
		<param name="calculateLinkTravelTimes" value="true" />
		<!-- (only for backwards compatiblity; only used if separateModes==false)  Only modes included in analyzedModes are included. -->
		<param name="filterModes" value="false" />
		<!-- The lenght (in sec) of the time period that is splited into time bins; an additional time bin is created to aggregate all travel times collected after maxTime -->
		<param name="maxTime" value="108000" />
		<!-- (only for backwards compatibility) If false, link travel times are measured and aggregated over all vehicles using the link. -->
		<param name="separateModes" value="true" />
		<!-- How to deal with congested time bins that have no link entry events. `optimistic' assumes free speed (too optimistic); 'experimental_LastMile' is experimental and probably too pessimistic. -->
		<param name="travelTimeAggregator" value="optimistic" />
		<!-- The size of the time bin (in sec) into which the link travel times are aggregated for the router -->
		<param name="travelTimeBinSize" value="900" />
		<!-- possible values: TravelTimeCalculatorArray TravelTimeCalculatorHashMap  -->
		<param name="travelTimeCalculator" value="TravelTimeCalculatorArray" />
		<!-- How to deal with link entry times at different positions during the time bin. Currently supported: average, linearinterpolation -->
		<param name="travelTimeGetter" value="average" />
	</module>
	<module name="vehicles" >
		<param name="vehiclesFile" value="mode-vehicles.xml" />
	</module>
	<module name="vspExperimental" >
		<!-- (do not use except of you have to) There was a problem with pt interaction scoring.  Some people solved it by overwriting the parameters of the pt interaction activity type.  Doing this now throws an Exception.  If you still insist on doing this, set the following to true. -->
		<param name="isAbleToOverwritePtInteractionParams" value="false" />
		<param name="isGeneratingBoardingDeniedEvent" value="false" />
		<!-- if an approximation of the opportunity cost of time is included into the radius calculation for location choice.`true' will be faster, but it is an approximation.  Default is `true'; `false' is available for backwards compatibility. -->
		<param name="isUsingOpportunityCostOfTimeForLocationChoice" value="true" />
		<param name="logitScaleParamForPlansRemoval" value="1.0" />
		<!-- Options: | ignore | info | warn | abort | .  When violating VSP defaults, this results in nothing, logfile infos, logfile warnings, or aborts.  Members of VSP should use `abort' or talk to kai. -->
		<param name="vspDefaultsCheckingLevel" value="ignore" />
		<!-- if true then writes output_events in output directory.  default is `false'. Will only work when lastIteration is multiple of events writing interval -->
		<param name="writingOutputEvents" value="true" />
	</module>

</config>

2023-01-02T00:39:30,411  INFO ControlerUtils:84 Complete config dump done.
2023-01-02T00:39:30,412  INFO ControlerUtils:85 Checking consistency of config...
2023-01-02T00:39:30,413  INFO VspConfigConsistencyCheckerImpl:63 NOT running vsp config consistency check because vsp defaults checking level is set to IGNORE
2023-01-02T00:39:30,418  INFO ControlerUtils:87 Checking consistency of config done.
2023-01-02T00:39:30,462  INFO Counter:69 [VehiclesImpl] added vehicle # 1
2023-01-02T00:39:30,462  WARN PrepareForSimImpl:220 'usePersonIdForMissingVehicleId' is deprecated. It will be removed soon.
2023-01-02T00:39:30,464  INFO Counter:69 [VehiclesImpl] added vehicle # 2
2023-01-02T00:39:30,468  INFO Counter:69 [VehiclesImpl] added vehicle # 4
2023-01-02T00:39:30,469  INFO Counter:69 [VehiclesImpl] added vehicle # 8
2023-01-02T00:39:30,470  INFO Counter:69 [VehiclesImpl] added vehicle # 16
2023-01-02T00:39:30,472  INFO Counter:69 [VehiclesImpl] added vehicle # 32
2023-01-02T00:39:30,474  INFO Counter:69 [VehiclesImpl] added vehicle # 64
2023-01-02T00:39:30,476  INFO Counter:69 [VehiclesImpl] added vehicle # 128
2023-01-02T00:39:30,512  INFO PreProcessDijkstra:118 nodes in dead ends: 25 (total nodes: 95). Done in 2 ms
2023-01-02T00:39:30,514  INFO PreProcessLandmarks:112 Putting landmarks on network...
2023-01-02T00:39:30,516  INFO LandmarkerPieSlices:96 Filling sectors...
2023-01-02T00:39:30,520  INFO LandmarkerPieSlices:107 Refining landmarks...
2023-01-02T00:39:30,520  INFO LandmarkerPieSlices:109 done
2023-01-02T00:39:30,522  INFO PreProcessLandmarks:115 done in 6 ms
2023-01-02T00:39:30,523  INFO PreProcessLandmarks:117 Initializing landmarks data
2023-01-02T00:39:30,525  INFO PreProcessLandmarks:129 Calculating distance from each node to each of the 16 landmarks using 2 threads...
2023-01-02T00:39:30,527  INFO PreProcessLandmarks:139 wait for landmarks Calculator to finish...
2023-01-02T00:39:30,536  INFO PreProcessLandmarks:163 done in 9 ms
2023-01-02T00:39:30,549  INFO NetworkImpl:163  node # 1
2023-01-02T00:39:30,549  INFO NetworkImpl:163  node # 4
2023-01-02T00:39:30,550  INFO NetworkImpl:163  node # 16
2023-01-02T00:39:30,555  INFO NetworkImpl:163  node # 64
2023-01-02T00:39:30,558  INFO NetworkImpl:159  link # 1
2023-01-02T00:39:30,558  INFO NetworkImpl:159  link # 4
2023-01-02T00:39:30,559  INFO NetworkImpl:159  link # 16
2023-01-02T00:39:30,561  INFO NetworkImpl:159  link # 64
2023-01-02T00:39:30,566  WARN RandomizingTimeDistanceTravelDisutilityFactory:112 There will be no routing randomness. The randomization of the travel disutility requires the monetary distance rate to be different than zero. Continuing anyway.
2023-01-02T00:39:30,567  WARN RandomizingTimeDistanceTravelDisutilityFactory:117 There will be no routing randomness. The randomization of the travel disutility requires the travel time cost rate to be different than zero. Continuing anyway.
2023-01-02T00:39:30,570  INFO RandomizingTimeDistanceTravelDisutilityFactory:85  sigma: 3.0; resulting normalization: 0.011108996538242306
2023-01-02T00:39:30,572  INFO PreProcessDijkstra:118 nodes in dead ends: 25 (total nodes: 95). Done in 0 ms
2023-01-02T00:39:30,573  INFO PreProcessLandmarks:112 Putting landmarks on network...
2023-01-02T00:39:30,573  INFO LandmarkerPieSlices:96 Filling sectors...
2023-01-02T00:39:30,574  INFO LandmarkerPieSlices:107 Refining landmarks...
2023-01-02T00:39:30,574  INFO LandmarkerPieSlices:109 done
2023-01-02T00:39:30,577  INFO PreProcessLandmarks:115 done in 4 ms
2023-01-02T00:39:30,578  INFO PreProcessLandmarks:117 Initializing landmarks data
2023-01-02T00:39:30,580  INFO PreProcessLandmarks:129 Calculating distance from each node to each of the 16 landmarks using 2 threads...
2023-01-02T00:39:30,581  INFO PreProcessLandmarks:139 wait for landmarks Calculator to finish...
2023-01-02T00:39:30,586  INFO PreProcessLandmarks:163 done in 5 ms
2023-01-02T00:39:30,588  INFO NetworkImpl:163  node # 1
2023-01-02T00:39:30,588  INFO NetworkImpl:163  node # 4
2023-01-02T00:39:30,589  INFO NetworkImpl:163  node # 16
2023-01-02T00:39:30,590  INFO NetworkImpl:163  node # 64
2023-01-02T00:39:30,592  INFO NetworkImpl:159  link # 1
2023-01-02T00:39:30,592  INFO NetworkImpl:159  link # 4
2023-01-02T00:39:30,596  INFO NetworkImpl:159  link # 16
2023-01-02T00:39:30,597  INFO NetworkImpl:159  link # 64
2023-01-02T00:39:30,599  INFO RandomizingTimeDistanceTravelDisutilityFactory:85  sigma: 3.0; resulting normalization: 0.011108996538242306
2023-01-02T00:39:30,600  INFO PreProcessDijkstra:118 nodes in dead ends: 25 (total nodes: 95). Done in 0 ms
2023-01-02T00:39:30,601  INFO PreProcessLandmarks:112 Putting landmarks on network...
2023-01-02T00:39:30,602  INFO LandmarkerPieSlices:96 Filling sectors...
2023-01-02T00:39:30,603  INFO LandmarkerPieSlices:107 Refining landmarks...
2023-01-02T00:39:30,603  INFO LandmarkerPieSlices:109 done
2023-01-02T00:39:30,605  INFO PreProcessLandmarks:115 done in 3 ms
2023-01-02T00:39:30,607  INFO PreProcessLandmarks:117 Initializing landmarks data
2023-01-02T00:39:30,607  INFO PreProcessLandmarks:129 Calculating distance from each node to each of the 16 landmarks using 2 threads...
2023-01-02T00:39:30,610  INFO PreProcessLandmarks:139 wait for landmarks Calculator to finish...
2023-01-02T00:39:30,614  INFO PreProcessLandmarks:163 done in 3 ms
2023-01-02T00:39:30,616  INFO RandomizingTimeDistanceTravelDisutilityFactory:85  sigma: 3.0; resulting normalization: 0.011108996538242306
2023-01-02T00:39:30,617  INFO RandomizingTimeDistanceTravelDisutilityFactory:85  sigma: 3.0; resulting normalization: 0.011108996538242306
2023-01-02T00:39:30,638  INFO Counter:69 [PersonPrepareForSim] handled person # 1
2023-01-02T00:39:30,641  INFO Counter:69 [PersonPrepareForSim] handled person # 2
2023-01-02T00:39:30,643  INFO Counter:69 [PersonPrepareForSim] handled person # 4
2023-01-02T00:39:30,648  INFO Counter:69 [PersonPrepareForSim] handled person # 8
2023-01-02T00:39:30,652  INFO Counter:69 [PersonPrepareForSim] handled person # 16
2023-01-02T00:39:30,659  INFO Counter:69 [PersonPrepareForSim] handled person # 32
2023-01-02T00:39:30,665  INFO Counter:69 [PersonPrepareForSim] handled person # 64
2023-01-02T00:39:30,675  INFO Counter:74 [PersonPrepareForSim] handled person # 100
2023-01-02T00:39:30,676  INFO AbstractController:133 ###################################################
2023-01-02T00:39:30,677  INFO AbstractController:134 ### ITERATION 0 BEGINS
2023-01-02T00:39:30,679  INFO ControlerListenerManagerImpl:145 calling notifyIterationStarts on org.matsim.analysis.LegHistogramListener
2023-01-02T00:39:30,679  INFO ControlerListenerManagerImpl:145 calling notifyIterationStarts on org.matsim.analysis.LinkStatsControlerListener
2023-01-02T00:39:30,680  INFO ControlerListenerManagerImpl:145 calling notifyIterationStarts on org.matsim.core.replanning.ReplanningContextImpl
2023-01-02T00:39:30,680  INFO ControlerListenerManagerImpl:145 calling notifyIterationStarts on org.matsim.core.scoring.ScoringFunctionsForPopulation$$Lambda$202/0x0000000800f1ad40
2023-01-02T00:39:30,792  INFO ControlerListenerManagerImpl:145 calling notifyIterationStarts on org.matsim.core.scoring.ExperiencedPlansServiceImpl$1
2023-01-02T00:39:30,793  INFO ControlerListenerManagerImpl:148 [it.0] all ControlerIterationStartsListeners called.
2023-01-02T00:39:30,799  INFO ControlerListenerManagerImpl:224 calling notifyBeforeMobsim on org.matsim.core.controler.corelisteners.EventsHandlingImpl
2023-01-02T00:39:30,801  INFO EventsManagerImpl:190 resetting Event-Handlers
2023-01-02T00:39:30,803  INFO EventsManagerImpl:197   org.matsim.core.trafficmonitoring.TravelTimeCalculator
2023-01-02T00:39:30,807  INFO EventsManagerImpl:197   org.matsim.core.trafficmonitoring.TravelTimeCalculator
2023-01-02T00:39:30,808  INFO EventsManagerImpl:197   org.matsim.analysis.VolumesAnalyzer
2023-01-02T00:39:30,809  INFO EventsManagerImpl:197   org.matsim.core.scoring.ScoringFunctionsForPopulation
2023-01-02T00:39:30,812  INFO EventsManagerImpl:197   org.matsim.analysis.LegHistogram
2023-01-02T00:39:30,813  INFO EventsManagerImpl:197   org.matsim.analysis.CalcLegTimes
2023-01-02T00:39:30,828  INFO EventsManagerImpl:160 adding Event-Handler: org.matsim.core.events.algorithms.EventWriterXML
2023-01-02T00:39:30,828  INFO EventsManagerImpl:166   org.matsim.core.events.algorithms.EventWriter
2023-01-02T00:39:30,831  INFO EventsManagerImpl:166   org.matsim.core.events.handler.BasicEventHandler
2023-01-02T00:39:30,834  INFO EventsManagerImpl:227     > org.matsim.api.core.v01.events.Event
2023-01-02T00:39:30,840  INFO EventsManagerImpl:176 
2023-01-02T00:39:30,843  INFO EventsManagerImpl:160 adding Event-Handler: org.matsim.core.events.algorithms.EventWriterXML
2023-01-02T00:39:30,845  INFO EventsManagerImpl:166   org.matsim.core.events.algorithms.EventWriter
2023-01-02T00:39:30,847  INFO EventsManagerImpl:166   org.matsim.core.events.handler.BasicEventHandler
2023-01-02T00:39:30,851  INFO EventsManagerImpl:227     > org.matsim.api.core.v01.events.Event
2023-01-02T00:39:30,853  INFO EventsManagerImpl:176 
2023-01-02T00:39:30,858  INFO ControlerListenerManagerImpl:224 calling notifyBeforeMobsim on org.matsim.core.controler.corelisteners.PlansDumpingImpl
2023-01-02T00:39:30,860  INFO PlansDumpingImpl:76 dumping plans...
2023-01-02T00:39:30,910  INFO Counter:69 [PopulationWriter] dumped person # 1
2023-01-02T00:39:30,912  INFO Counter:69 [PopulationWriter] dumped person # 2
2023-01-02T00:39:30,915  INFO Counter:69 [PopulationWriter] dumped person # 4
2023-01-02T00:39:30,921  INFO Counter:69 [PopulationWriter] dumped person # 8
2023-01-02T00:39:30,927  INFO Counter:69 [PopulationWriter] dumped person # 16
2023-01-02T00:39:30,935  INFO Counter:69 [PopulationWriter] dumped person # 32
2023-01-02T00:39:30,947  INFO Counter:69 [PopulationWriter] dumped person # 64
2023-01-02T00:39:30,958  INFO PopulationWriter:144 Population written to: ./output/ITERS/it.0/0.plans.xml.gz
2023-01-02T00:39:30,960  INFO Counter:74 [PopulationWriter] dumped person # 100
2023-01-02T00:39:30,961  INFO PlansDumpingImpl:93 finished plans dump.
2023-01-02T00:39:30,963  INFO ControlerListenerManagerImpl:229 calling notifyBeforeMobsim on org.matsim.core.population.VspPlansCleaner
2023-01-02T00:39:30,964  INFO ControlerListenerManagerImpl:232 [it.0] all ControlerBeforeMobsimListeners called.
2023-01-02T00:39:30,965  INFO PrepareForMobsimImpl:86 Network seems to be multimodal. Create car-only network which is handed over to PersonPrepareForSim.
2023-01-02T00:39:30,965  INFO NetworkImpl:163  node # 1
2023-01-02T00:39:30,966  INFO NetworkImpl:163  node # 4
2023-01-02T00:39:30,966  INFO NetworkImpl:163  node # 16
2023-01-02T00:39:30,967  INFO NetworkImpl:163  node # 64
2023-01-02T00:39:30,968  INFO NetworkImpl:159  link # 1
2023-01-02T00:39:30,973  INFO NetworkImpl:159  link # 4
2023-01-02T00:39:30,975  INFO NetworkImpl:159  link # 16
2023-01-02T00:39:30,978  INFO NetworkImpl:159  link # 64
2023-01-02T00:39:30,982  INFO RandomizingTimeDistanceTravelDisutilityFactory:85  sigma: 3.0; resulting normalization: 0.011108996538242306
2023-01-02T00:39:30,982  INFO RandomizingTimeDistanceTravelDisutilityFactory:85  sigma: 3.0; resulting normalization: 0.011108996538242306
2023-01-02T00:39:30,986  INFO RandomizingTimeDistanceTravelDisutilityFactory:85  sigma: 3.0; resulting normalization: 0.011108996538242306
2023-01-02T00:39:30,987  INFO RandomizingTimeDistanceTravelDisutilityFactory:85  sigma: 3.0; resulting normalization: 0.011108996538242306
2023-01-02T00:39:30,993  INFO Counter:69 [PersonPrepareForSim] handled person # 2
2023-01-02T00:39:30,993  INFO Counter:69 [PersonPrepareForSim] handled person # 1
2023-01-02T00:39:30,993  INFO Counter:69 [PersonPrepareForSim] handled person # 4
2023-01-02T00:39:30,993  INFO Counter:69 [PersonPrepareForSim] handled person # 8
2023-01-02T00:39:30,994  INFO Counter:69 [PersonPrepareForSim] handled person # 16
2023-01-02T00:39:30,995  INFO Counter:69 [PersonPrepareForSim] handled person # 32
2023-01-02T00:39:30,997  INFO Counter:69 [PersonPrepareForSim] handled person # 64
2023-01-02T00:39:31,003  INFO Counter:74 [PersonPrepareForSim] handled person # 100
2023-01-02T00:39:31,128  INFO MobsimListenerManager:49 calling addQueueSimulationListener
2023-01-02T00:39:31,129  INFO MobsimListenerManager:53   assigned class org.matsim.core.mobsim.framework.listeners.MobsimListener to interface org.matsim.vis.snapshotwriters.SnapshotWriterManager
2023-01-02T00:39:31,130  INFO MobsimListenerManager:53   assigned class org.matsim.core.mobsim.framework.listeners.MobsimListener to interface org.matsim.core.mobsim.framework.listeners.MobsimListener
2023-01-02T00:39:31,133  INFO MobsimListenerManager:53   assigned class org.matsim.core.mobsim.framework.listeners.MobsimListener to interface org.matsim.core.mobsim.framework.listeners.MobsimAfterSimStepListener
2023-01-02T00:39:31,134  INFO MobsimListenerManager:53   assigned class org.matsim.core.mobsim.framework.listeners.MobsimListener to interface org.matsim.core.mobsim.framework.listeners.MobsimBeforeCleanupListener
2023-01-02T00:39:31,134  INFO MobsimListenerManager:53   assigned class org.matsim.core.mobsim.framework.listeners.MobsimListener to interface org.matsim.core.mobsim.framework.listeners.MobsimInitializedListener
2023-01-02T00:39:31,166  WARN QueueWithBuffer:421 max flow from fdiag < flow cap in network file; linkId=1; network file flow cap/h=4000.0; max flow from fdiag/h=3076.9230769230767
2023-01-02T00:39:31,167  WARN QueueWithBuffer:425 number of lanes from fdiag > number of lanes in network file; linkId=1; number of lanes in network file=2.0; number of lanes from fdiag=2.6
2023-01-02T00:39:31,168  WARN QueueWithBuffer:435 The flow capacity will be reduced. See link attribute 'maxInflowUsedInQsim' written into the output network.
2023-01-02T00:39:31,174  WARN QueueWithBuffer:538 storage capacity not sufficient for holes; increasing from 53.19941458648133 to 69.15923896242573
2023-01-02T00:39:31,175  WARN QueueWithBuffer:421 max flow from fdiag < flow cap in network file; linkId=100; network file flow cap/h=4000.0; max flow from fdiag/h=3200.0
2023-01-02T00:39:31,176  WARN QueueWithBuffer:425 number of lanes from fdiag > number of lanes in network file; linkId=100; number of lanes in network file=2.0; number of lanes from fdiag=2.5
2023-01-02T00:39:31,176  WARN QueueWithBuffer:435 The flow capacity will be reduced. See link attribute 'maxInflowUsedInQsim' written into the output network.
2023-01-02T00:39:31,177  WARN QueueWithBuffer:538 storage capacity not sufficient for holes; increasing from 25.70875723633416 to 32.1359465454177
2023-01-02T00:39:31,178  WARN QueueWithBuffer:421 max flow from fdiag < flow cap in network file; linkId=101; network file flow cap/h=8000.0; max flow from fdiag/h=6400.0
2023-01-02T00:39:31,181  WARN QueueWithBuffer:425 number of lanes from fdiag > number of lanes in network file; linkId=101; number of lanes in network file=4.0; number of lanes from fdiag=5.0
2023-01-02T00:39:31,181  WARN QueueWithBuffer:435 The flow capacity will be reduced. See link attribute 'maxInflowUsedInQsim' written into the output network.
2023-01-02T00:39:31,184  WARN QueueWithBuffer:538 storage capacity not sufficient for holes; increasing from 5.277062485821551 to 6.59632810727694
2023-01-02T00:39:31,184  WARN QueueWithBuffer:421 max flow from fdiag < flow cap in network file; linkId=102; network file flow cap/h=8000.0; max flow from fdiag/h=6400.0
2023-01-02T00:39:31,185  WARN QueueWithBuffer:425 number of lanes from fdiag > number of lanes in network file; linkId=102; number of lanes in network file=4.0; number of lanes from fdiag=5.0
2023-01-02T00:39:31,185  WARN QueueWithBuffer:435 The flow capacity will be reduced. See link attribute 'maxInflowUsedInQsim' written into the output network.
2023-01-02T00:39:31,186  WARN QueueWithBuffer:538 storage capacity not sufficient for holes; increasing from 136.82418277724753 to 171.0302284715594
2023-01-02T00:39:31,187  WARN QueueWithBuffer:421 max flow from fdiag < flow cap in network file; linkId=103; network file flow cap/h=2000.0; max flow from fdiag/h=1600.0
2023-01-02T00:39:31,188  WARN QueueWithBuffer:425 number of lanes from fdiag > number of lanes in network file; linkId=103; number of lanes in network file=1.0; number of lanes from fdiag=1.25
2023-01-02T00:39:31,189  WARN QueueWithBuffer:435 The flow capacity will be reduced. See link attribute 'maxInflowUsedInQsim' written into the output network.
2023-01-02T00:39:31,189  WARN QueueWithBuffer:538 storage capacity not sufficient for holes; increasing from 8.15351281988767 to 10.191891024859586
2023-01-02T00:39:31,190  WARN QueueWithBuffer:421 max flow from fdiag < flow cap in network file; linkId=104; network file flow cap/h=2000.0; max flow from fdiag/h=1600.0
2023-01-02T00:39:31,191  WARN QueueWithBuffer:425 number of lanes from fdiag > number of lanes in network file; linkId=104; number of lanes in network file=1.0; number of lanes from fdiag=1.25
2023-01-02T00:39:31,191  WARN QueueWithBuffer:435 The flow capacity will be reduced. See link attribute 'maxInflowUsedInQsim' written into the output network.
2023-01-02T00:39:31,192  WARN QueueWithBuffer:538 storage capacity not sufficient for holes; increasing from 8.15351281988767 to 10.191891024859586
2023-01-02T00:39:31,192  WARN QueueWithBuffer:421 max flow from fdiag < flow cap in network file; linkId=105; network file flow cap/h=2000.0; max flow from fdiag/h=1600.0
2023-01-02T00:39:31,193  WARN QueueWithBuffer:425 number of lanes from fdiag > number of lanes in network file; linkId=105; number of lanes in network file=1.0; number of lanes from fdiag=1.25
2023-01-02T00:39:31,198  WARN QueueWithBuffer:435 The flow capacity will be reduced. See link attribute 'maxInflowUsedInQsim' written into the output network.
2023-01-02T00:39:31,198  WARN QueueWithBuffer:538 storage capacity not sufficient for holes; increasing from 25.853470293639102 to 32.31683786704888
2023-01-02T00:39:31,200  WARN QueueWithBuffer:421 max flow from fdiag < flow cap in network file; linkId=106; network file flow cap/h=2000.0; max flow from fdiag/h=1600.0
2023-01-02T00:39:31,200  WARN QueueWithBuffer:425 number of lanes from fdiag > number of lanes in network file; linkId=106; number of lanes in network file=1.0; number of lanes from fdiag=1.25
2023-01-02T00:39:31,201  WARN QueueWithBuffer:435 The flow capacity will be reduced. See link attribute 'maxInflowUsedInQsim' written into the output network.
2023-01-02T00:39:31,202  WARN QueueWithBuffer:538 storage capacity not sufficient for holes; increasing from 25.853470293639102 to 32.31683786704888
2023-01-02T00:39:31,202  WARN QueueWithBuffer:421 max flow from fdiag < flow cap in network file; linkId=107; network file flow cap/h=2000.0; max flow from fdiag/h=1600.0
2023-01-02T00:39:31,203  WARN QueueWithBuffer:425 number of lanes from fdiag > number of lanes in network file; linkId=107; number of lanes in network file=1.0; number of lanes from fdiag=1.25
2023-01-02T00:39:31,203  WARN QueueWithBuffer:435 The flow capacity will be reduced. See link attribute 'maxInflowUsedInQsim' written into the output network.
2023-01-02T00:39:31,205  WARN QueueWithBuffer:538 storage capacity not sufficient for holes; increasing from 5.6202806121003155 to 7.025350765125395
2023-01-02T00:39:31,206  WARN QueueWithBuffer:421 max flow from fdiag < flow cap in network file; linkId=108; network file flow cap/h=2000.0; max flow from fdiag/h=1600.0
2023-01-02T00:39:31,206  WARN QueueWithBuffer:425 number of lanes from fdiag > number of lanes in network file; linkId=108; number of lanes in network file=1.0; number of lanes from fdiag=1.25
2023-01-02T00:39:31,207  WARN QueueWithBuffer:430  Future occurences of this logging statement are suppressed.
2023-01-02T00:39:31,208  WARN QueueWithBuffer:538 storage capacity not sufficient for holes; increasing from 5.6202806121003155 to 7.025350765125395
2023-01-02T00:39:31,212  WARN QueueWithBuffer:538 storage capacity not sufficient for holes; increasing from 626.9161120168054 to 783.6451400210068
2023-01-02T00:39:31,226  INFO QSimProvider:122 Added MobsimEngine class org.matsim.core.mobsim.qsim.ActivityEngineDefaultImpl
2023-01-02T00:39:31,226  INFO QSimProvider:128 Added Activityhandler class org.matsim.core.mobsim.qsim.ActivityEngineDefaultImpl
2023-01-02T00:39:31,227  INFO QSimProvider:134 Added DepartureHandler class org.matsim.core.mobsim.qsim.qnetsimengine.VehicularDepartureHandler
2023-01-02T00:39:31,230  INFO QSimProvider:122 Added MobsimEngine class org.matsim.core.mobsim.qsim.qnetsimengine.QNetsimEngineWithThreadpool
2023-01-02T00:39:31,231  INFO QSimProvider:122 Added MobsimEngine class org.matsim.core.mobsim.qsim.DefaultTeleportationEngine
2023-01-02T00:39:31,231  INFO QSimProvider:134 Added DepartureHandler class org.matsim.core.mobsim.qsim.DefaultTeleportationEngine
2023-01-02T00:39:31,232  INFO QSimProvider:140 Added AgentSource class org.matsim.core.mobsim.qsim.agents.PopulationAgentSource
2023-01-02T00:39:31,232  INFO MobsimListenerManager:49 calling addQueueSimulationListener
2023-01-02T00:39:31,233  INFO MobsimListenerManager:53   assigned class org.matsim.core.mobsim.framework.listeners.MobsimListener to interface org.matsim.core.mobsim.qsim.messagequeueengine.MessageQueueEngine
2023-01-02T00:39:31,233  INFO MobsimListenerManager:53   assigned class org.matsim.core.mobsim.framework.listeners.MobsimListener to interface org.matsim.core.mobsim.framework.listeners.MobsimListener
2023-01-02T00:39:31,234  INFO MobsimListenerManager:53   assigned class org.matsim.core.mobsim.framework.listeners.MobsimListener to interface org.matsim.core.mobsim.framework.listeners.MobsimBeforeSimStepListener
2023-01-02T00:39:31,235  INFO QSimProvider:146 Added MobsimListener class org.matsim.core.mobsim.qsim.messagequeueengine.MessageQueueEngine
2023-01-02T00:39:31,246  INFO PopulationUtils:1145 adding scenario element for allpersons container
2023-01-02T00:39:31,246  INFO PopulationImpl:105  person # 1
2023-01-02T00:39:31,247  INFO PopulationImpl:105  person # 4
2023-01-02T00:39:31,249  INFO PopulationImpl:105  person # 16
2023-01-02T00:39:31,250  INFO PopulationImpl:105  person # 64
2023-01-02T00:39:31,251  INFO VehicleUtils:327 adding scenario element for allvehicles container
2023-01-02T00:39:31,251  INFO Counter:69 [VehiclesImpl] added vehicle # 1
2023-01-02T00:39:31,252  INFO Counter:69 [VehiclesImpl] added vehicle # 2
2023-01-02T00:39:31,253  INFO Counter:69 [VehiclesImpl] added vehicle # 4
2023-01-02T00:39:31,256  INFO Counter:69 [VehiclesImpl] added vehicle # 8
2023-01-02T00:39:31,256  INFO Counter:69 [VehiclesImpl] added vehicle # 16
2023-01-02T00:39:31,259  INFO Counter:69 [VehiclesImpl] added vehicle # 32
2023-01-02T00:39:31,260  INFO Counter:69 [VehiclesImpl] added vehicle # 64
2023-01-02T00:39:31,266  INFO AbstractQNetsimEngine:427 Assigned 95 nodes and 176 links to QSimEngineRunner #0
2023-01-02T00:39:31,270  INFO EventsManagerImpl:137  event # 1
2023-01-02T00:39:31,275  INFO EventsManagerImpl:137  event # 4
2023-01-02T00:39:31,277  INFO EventsManagerImpl:137  event # 16
2023-01-02T00:39:31,280  INFO AbstractQNetsimEngine:365 SIMULATION (QNetsimEngine) AT 05:58:30 : #links=1 #nodes=1
2023-01-02T00:39:31,288  INFO QSim:553 SIMULATION (NEW QSim) AT 05:58:30 : #Veh=100 lost=0 simT=0.0s realT=0s; (s/r): 0.0
2023-01-02T00:39:31,297  INFO EventsManagerImpl:137  event # 64
2023-01-02T00:39:31,328  INFO EventsManagerImpl:137  event # 256
2023-01-02T00:39:31,361  INFO AbstractQNetsimEngine:365 SIMULATION (QNetsimEngine) AT 06:00:00 : #links=16 #nodes=10
2023-01-02T00:39:31,362  INFO QSim:553 SIMULATION (NEW QSim) AT 06:00:00 : #Veh=100 lost=0 simT=90.0s realT=0s; (s/r): Infinity
2023-01-02T00:39:31,373  INFO EventsManagerImpl:137  event # 1024
2023-01-02T00:39:31,513  INFO EventsManagerImpl:137  event # 4096
2023-01-02T00:39:31,887  INFO AbstractQNetsimEngine:365 SIMULATION (QNetsimEngine) AT 07:00:00 : #links=0 #nodes=0
2023-01-02T00:39:31,888  INFO QSim:553 SIMULATION (NEW QSim) AT 07:00:00 : #Veh=40 lost=0 simT=3690.0s realT=0s; (s/r): Infinity
2023-01-02T00:39:32,230  INFO AbstractQNetsimEngine:365 SIMULATION (QNetsimEngine) AT 08:00:00 : #links=0 #nodes=0
2023-01-02T00:39:32,231  INFO QSim:553 SIMULATION (NEW QSim) AT 08:00:00 : #Veh=10 lost=0 simT=7290.0s realT=1s; (s/r): 7290.0
2023-01-02T00:39:32,524  INFO AbstractQNetsimEngine:365 SIMULATION (QNetsimEngine) AT 09:00:00 : #links=0 #nodes=0
2023-01-02T00:39:32,524  INFO QSim:553 SIMULATION (NEW QSim) AT 09:00:00 : #Veh=10 lost=0 simT=10890.0s realT=1s; (s/r): 10890.0
2023-01-02T00:39:32,850  INFO AbstractQNetsimEngine:365 SIMULATION (QNetsimEngine) AT 10:00:00 : #links=0 #nodes=0
2023-01-02T00:39:32,851  INFO QSim:553 SIMULATION (NEW QSim) AT 10:00:00 : #Veh=10 lost=0 simT=14490.0s realT=1s; (s/r): 14490.0
2023-01-02T00:39:33,131  INFO AbstractQNetsimEngine:365 SIMULATION (QNetsimEngine) AT 11:00:00 : #links=0 #nodes=0
2023-01-02T00:39:33,131  INFO QSim:553 SIMULATION (NEW QSim) AT 11:00:00 : #Veh=10 lost=0 simT=18090.0s realT=2s; (s/r): 9045.0
2023-01-02T00:39:33,470  INFO AbstractQNetsimEngine:365 SIMULATION (QNetsimEngine) AT 12:00:00 : #links=0 #nodes=0
2023-01-02T00:39:33,471  INFO QSim:553 SIMULATION (NEW QSim) AT 12:00:00 : #Veh=10 lost=0 simT=21690.0s realT=2s; (s/r): 10845.0
2023-01-02T00:39:33,723  INFO AbstractController$9:234 ### ITERATION 0 fires after mobsim event
2023-01-02T00:39:33,723  INFO ControlerListenerManagerImpl:248 calling notifyAfterMobsim on org.matsim.analysis.LegTimesControlerListener
2023-01-02T00:39:33,724  INFO Gbl:191 Thread performance: Thread=class org.matsim.core.events.SimStepParallelEventsManagerImpl$ProcessEventsRunnable0  cpu-time=0.578125sec
2023-01-02T00:39:33,733  INFO LegTimesControlerListener:50 [0] average trip (probably: leg) duration is: 271 seconds = 00:04:31
2023-01-02T00:39:33,733  INFO ControlerListenerManagerImpl:248 calling notifyAfterMobsim on org.matsim.core.events.MobsimScopeEventHandling
2023-01-02T00:39:33,736  INFO ControlerListenerManagerImpl:248 calling notifyAfterMobsim on org.matsim.core.scoring.EventsToActivities$1
2023-01-02T00:39:33,739  INFO ControlerListenerManagerImpl:251 [it.0] all ControlerAfterMobsimListeners called.
2023-01-02T00:39:33,741  INFO AbstractController$4:159 ### ITERATION 0 fires scoring event
2023-01-02T00:39:33,741  INFO ControlerListenerManagerImpl:183 calling notifyScoring on org.matsim.core.scoring.PlansScoringImpl
2023-01-02T00:39:33,747  INFO NewScoreAssignerImpl:57 it: 0 msaStart: null
2023-01-02T00:39:33,748  INFO ControlerListenerManagerImpl:194 [it.0] all ControlerScoringListeners called.
2023-01-02T00:39:33,749  INFO AbstractController$5:167 ### ITERATION 0 fires iteration end event
2023-01-02T00:39:33,750  INFO ControlerListenerManagerImpl:160 calling notifyIterationEnds on org.matsim.core.controler.corelisteners.EventsHandlingImpl
2023-01-02T00:39:33,755  INFO EventsManagerImpl:181 removing Event-Handler: org.matsim.core.events.algorithms.EventWriterXML
2023-01-02T00:39:33,755  INFO EventsManagerImpl:181 removing Event-Handler: org.matsim.core.events.algorithms.EventWriterXML
2023-01-02T00:39:33,757  INFO ControlerListenerManagerImpl:160 calling notifyIterationEnds on org.matsim.core.scoring.PlansScoringImpl
2023-01-02T00:39:33,759  INFO ControlerListenerManagerImpl:167 calling notifyIterationEnds on org.matsim.counts.CountsControlerListener
2023-01-02T00:39:33,759  INFO ControlerListenerManagerImpl:167 calling notifyIterationEnds on org.matsim.analysis.ModeStatsControlerListener
2023-01-02T00:39:33,760  INFO ModeStatsControlerListener:144 Mode shares over all 200.0 trips found. MainModeIdentifier: class org.matsim.core.router.RoutingModeMainModeIdentifier
2023-01-02T00:39:33,761  INFO ModeStatsControlerListener:151 -- mode share of mode bicycle = 0.2
2023-01-02T00:39:33,762  INFO ModeStatsControlerListener:151 -- mode share of mode car = 0.8
2023-01-02T00:39:33,764  INFO ControlerListenerManagerImpl:167 calling notifyIterationEnds on org.matsim.analysis.ScoreStatsControlerListener
2023-01-02T00:39:33,765  INFO ScoreStatsControlerListener:181 -- avg. score of the executed plan of each agent: 79.12468795742248
2023-01-02T00:39:33,769  INFO ScoreStatsControlerListener:182 -- avg. score of the worst plan of each agent: 79.12468795742248
2023-01-02T00:39:33,769  INFO ScoreStatsControlerListener:183 -- avg. of the avg. plan score per agent: 79.12468795742248
2023-01-02T00:39:33,773  INFO ScoreStatsControlerListener:184 -- avg. score of the best plan of each agent: 79.12468795742248
2023-01-02T00:39:33,778  INFO ControlerListenerManagerImpl:167 calling notifyIterationEnds on org.matsim.analysis.IterationTravelStatsControlerListener
2023-01-02T00:39:33,972  INFO TravelDistanceStats:143 -- average leg distance per plan (executed plans only): 1747.869501581896 meters
2023-01-02T00:39:33,973  INFO TravelDistanceStats:144 average leg distance per Person (executed plans only): 3495.739003163792 meters (statistic on all 200 legs which have a finite distance)
2023-01-02T00:39:33,975  INFO TravelDistanceStats:145 -- average trip distance per plan (executed plans only): 1747.869501581896 meters
2023-01-02T00:39:33,979  INFO TravelDistanceStats:146 average trip distance per Person (executed plans only): 3495.739003163792 meters (statistic on all 200 trips which have a finite distance)
2023-01-02T00:39:33,979  INFO TravelDistanceStats:147 (TravelDistanceStats takes an average over all legs where the simulation reports travelled (network) distances
2023-01-02T00:39:33,980  INFO TravelDistanceStats:148 (and teleported legs whose route contains a distance.)
2023-01-02T00:39:36,907  INFO ControlerListenerManagerImpl:167 calling notifyIterationEnds on org.matsim.analysis.LegHistogramListener
2023-01-02T00:39:36,919  INFO LegHistogramListener:72 number of legs:	200	100%
2023-01-02T00:39:36,922  INFO LegHistogramListener:79 number of bicycle legs:	40	20.0%
2023-01-02T00:39:36,923  INFO LegHistogramListener:79 number of car legs:	160	80.0%
2023-01-02T00:39:37,267  INFO ControlerListenerManagerImpl:167 calling notifyIterationEnds on org.matsim.analysis.LinkStatsControlerListener
2023-01-02T00:39:37,267  INFO ControlerListenerManagerImpl:171 [it.0] all ControlerIterationEndsListeners called.
2023-01-02T00:39:37,397  INFO AbstractController:181 ### ITERATION 0 ENDS
2023-01-02T00:39:37,397  INFO AbstractController:182 ###################################################
2023-01-02T00:39:37,399  INFO AbstractController:133 ###################################################
2023-01-02T00:39:37,399  INFO AbstractController:134 ### ITERATION 1 BEGINS
2023-01-02T00:39:37,405  INFO ControlerListenerManagerImpl:145 calling notifyIterationStarts on org.matsim.analysis.LegHistogramListener
2023-01-02T00:39:37,406  INFO ControlerListenerManagerImpl:145 calling notifyIterationStarts on org.matsim.analysis.LinkStatsControlerListener
2023-01-02T00:39:37,406  INFO ControlerListenerManagerImpl:145 calling notifyIterationStarts on org.matsim.core.replanning.ReplanningContextImpl
2023-01-02T00:39:37,407  INFO ControlerListenerManagerImpl:145 calling notifyIterationStarts on org.matsim.core.scoring.ScoringFunctionsForPopulation$$Lambda$202/0x0000000800f1ad40
2023-01-02T00:39:37,408  INFO ControlerListenerManagerImpl:145 calling notifyIterationStarts on org.matsim.core.scoring.ExperiencedPlansServiceImpl$1
2023-01-02T00:39:37,409  INFO ControlerListenerManagerImpl:148 [it.1] all ControlerIterationStartsListeners called.
2023-01-02T00:39:37,411  INFO ControlerListenerManagerImpl:205 calling notifyReplanning on org.matsim.core.controler.corelisteners.PlansReplanningImpl
2023-01-02T00:39:37,412  INFO RandomizingTimeDistanceTravelDisutilityFactory:85  sigma: 3.0; resulting normalization: 0.011108996538242306
2023-01-02T00:39:37,412  INFO RandomizingTimeDistanceTravelDisutilityFactory:85  sigma: 3.0; resulting normalization: 0.011108996538242306
2023-01-02T00:39:37,417  INFO GenericPlanStrategyImpl:125 Plan-Strategy finished, 89 plans handled. Strategy: BestPlanSelector
2023-01-02T00:39:37,418  INFO AbstractMultithreadedModule:141 [PlanRouter] starting 2 threads, handling 11 plans
2023-01-02T00:39:37,422  INFO Counter:69 [PlanRouter] handled plan # 1
2023-01-02T00:39:37,422  INFO Counter:69 [PlanRouter] handled plan # 2
2023-01-02T00:39:37,428  INFO Counter:69 [PlanRouter] handled plan # 4
2023-01-02T00:39:37,429  INFO Counter:69 [PlanRouter] handled plan # 8
2023-01-02T00:39:37,430  INFO AbstractMultithreadedModule:156 [PlanRouter] all 2 threads finished.
2023-01-02T00:39:37,430  INFO GenericPlanStrategyImpl:125 Plan-Strategy finished, 11 plans handled. Strategy: RandomPlanSelector_ReRoute
2023-01-02T00:39:37,431  INFO ControlerListenerManagerImpl:213 [it.1] all ControlerReplanningListeners called.
2023-01-02T00:39:37,432  INFO ControlerListenerManagerImpl:224 calling notifyBeforeMobsim on org.matsim.core.controler.corelisteners.EventsHandlingImpl
2023-01-02T00:39:37,433  INFO EventsManagerImpl:190 resetting Event-Handlers
2023-01-02T00:39:37,433  INFO EventsManagerImpl:197   org.matsim.core.trafficmonitoring.TravelTimeCalculator
2023-01-02T00:39:37,434  INFO EventsManagerImpl:197   org.matsim.core.trafficmonitoring.TravelTimeCalculator
2023-01-02T00:39:37,435  INFO EventsManagerImpl:197   org.matsim.analysis.VolumesAnalyzer
2023-01-02T00:39:37,435  INFO EventsManagerImpl:197   org.matsim.core.scoring.ScoringFunctionsForPopulation
2023-01-02T00:39:37,436  INFO EventsManagerImpl:197   org.matsim.analysis.LegHistogram
2023-01-02T00:39:37,437  INFO EventsManagerImpl:197   org.matsim.analysis.CalcLegTimes
2023-01-02T00:39:37,441  INFO ControlerListenerManagerImpl:224 calling notifyBeforeMobsim on org.matsim.core.controler.corelisteners.PlansDumpingImpl
2023-01-02T00:39:37,441  INFO PlansDumpingImpl:76 dumping plans...
2023-01-02T00:39:37,445  INFO Counter:69 [PopulationWriter] dumped person # 1
2023-01-02T00:39:37,446  INFO Counter:69 [PopulationWriter] dumped person # 2
2023-01-02T00:39:37,447  INFO Counter:69 [PopulationWriter] dumped person # 4
2023-01-02T00:39:37,449  INFO Counter:69 [PopulationWriter] dumped person # 8
2023-01-02T00:39:37,451  INFO Counter:69 [PopulationWriter] dumped person # 16
2023-01-02T00:39:37,458  INFO Counter:69 [PopulationWriter] dumped person # 32
2023-01-02T00:39:37,464  INFO Counter:69 [PopulationWriter] dumped person # 64
[...]
2023-01-02T00:40:06,326  INFO EventsManagerImpl:190 resetting Event-Handlers
2023-01-02T00:40:06,327  INFO EventsManagerImpl:197   org.matsim.core.trafficmonitoring.TravelTimeCalculator
2023-01-02T00:40:06,328  INFO EventsManagerImpl:197   org.matsim.core.trafficmonitoring.TravelTimeCalculator
2023-01-02T00:40:06,329  INFO EventsManagerImpl:197   org.matsim.analysis.VolumesAnalyzer
2023-01-02T00:40:06,329  INFO EventsManagerImpl:197   org.matsim.core.scoring.ScoringFunctionsForPopulation
2023-01-02T00:40:06,330  INFO EventsManagerImpl:197   org.matsim.analysis.LegHistogram
2023-01-02T00:40:06,331  INFO EventsManagerImpl:197   org.matsim.analysis.CalcLegTimes
2023-01-02T00:40:06,338  INFO EventsManagerImpl:160 adding Event-Handler: org.matsim.core.events.algorithms.EventWriterXML
2023-01-02T00:40:06,339  INFO EventsManagerImpl:166   org.matsim.core.events.algorithms.EventWriter
2023-01-02T00:40:06,340  INFO EventsManagerImpl:166   org.matsim.core.events.handler.BasicEventHandler
2023-01-02T00:40:06,341  INFO EventsManagerImpl:227     > org.matsim.api.core.v01.events.Event
2023-01-02T00:40:06,342  INFO EventsManagerImpl:176 
2023-01-02T00:40:06,342  INFO EventsManagerImpl:160 adding Event-Handler: org.matsim.core.events.algorithms.EventWriterXML
2023-01-02T00:40:06,343  INFO EventsManagerImpl:166   org.matsim.core.events.algorithms.EventWriter
2023-01-02T00:40:06,344  INFO EventsManagerImpl:166   org.matsim.core.events.handler.BasicEventHandler
2023-01-02T00:40:06,345  INFO EventsManagerImpl:227     > org.matsim.api.core.v01.events.Event
2023-01-02T00:40:06,346  INFO EventsManagerImpl:176 
2023-01-02T00:40:06,351  INFO ControlerListenerManagerImpl:224 calling notifyBeforeMobsim on org.matsim.core.controler.corelisteners.PlansDumpingImpl
2023-01-02T00:40:06,354  INFO ControlerListenerManagerImpl:229 calling notifyBeforeMobsim on org.matsim.core.population.VspPlansCleaner
2023-01-02T00:40:06,355  INFO ControlerListenerManagerImpl:232 [it.10] all ControlerBeforeMobsimListeners called.
2023-01-02T00:40:06,356  INFO PrepareForMobsimImpl:86 Network seems to be multimodal. Create car-only network which is handed over to PersonPrepareForSim.
2023-01-02T00:40:06,358  INFO NetworkImpl:163  node # 1
2023-01-02T00:40:06,358  INFO NetworkImpl:163  node # 4
2023-01-02T00:40:06,360  INFO NetworkImpl:163  node # 16
2023-01-02T00:40:06,361  INFO NetworkImpl:163  node # 64
2023-01-02T00:40:06,365  INFO NetworkImpl:159  link # 1
2023-01-02T00:40:06,366  INFO NetworkImpl:159  link # 4
2023-01-02T00:40:06,372  INFO NetworkImpl:159  link # 16
2023-01-02T00:40:06,373  INFO NetworkImpl:159  link # 64
2023-01-02T00:40:06,378  INFO Counter:69 [PersonPrepareForSim] handled person # 1
2023-01-02T00:40:06,379  INFO Counter:69 [PersonPrepareForSim] handled person # 2
2023-01-02T00:40:06,379  INFO Counter:69 [PersonPrepareForSim] handled person # 4
2023-01-02T00:40:06,380  INFO Counter:69 [PersonPrepareForSim] handled person # 8
2023-01-02T00:40:06,385  INFO Counter:69 [PersonPrepareForSim] handled person # 16
2023-01-02T00:40:06,387  INFO Counter:69 [PersonPrepareForSim] handled person # 32
2023-01-02T00:40:06,389  INFO Counter:69 [PersonPrepareForSim] handled person # 64
2023-01-02T00:40:06,397  INFO Counter:74 [PersonPrepareForSim] handled person # 100
2023-01-02T00:40:06,429  INFO MobsimListenerManager:49 calling addQueueSimulationListener
2023-01-02T00:40:06,429  INFO MobsimListenerManager:53   assigned class org.matsim.core.mobsim.framework.listeners.MobsimListener to interface org.matsim.vis.snapshotwriters.SnapshotWriterManager
2023-01-02T00:40:06,432  INFO MobsimListenerManager:53   assigned class org.matsim.core.mobsim.framework.listeners.MobsimListener to interface org.matsim.core.mobsim.framework.listeners.MobsimListener
2023-01-02T00:40:06,438  INFO MobsimListenerManager:53   assigned class org.matsim.core.mobsim.framework.listeners.MobsimListener to interface org.matsim.core.mobsim.framework.listeners.MobsimAfterSimStepListener
2023-01-02T00:40:06,439  INFO MobsimListenerManager:53   assigned class org.matsim.core.mobsim.framework.listeners.MobsimListener to interface org.matsim.core.mobsim.framework.listeners.MobsimBeforeCleanupListener
2023-01-02T00:40:06,440  INFO MobsimListenerManager:53   assigned class org.matsim.core.mobsim.framework.listeners.MobsimListener to interface org.matsim.core.mobsim.framework.listeners.MobsimInitializedListener
2023-01-02T00:40:06,442  INFO QSimProvider:122 Added MobsimEngine class org.matsim.core.mobsim.qsim.ActivityEngineDefaultImpl
2023-01-02T00:40:06,443  INFO QSimProvider:128 Added Activityhandler class org.matsim.core.mobsim.qsim.ActivityEngineDefaultImpl
2023-01-02T00:40:06,444  INFO QSimProvider:134 Added DepartureHandler class org.matsim.core.mobsim.qsim.qnetsimengine.VehicularDepartureHandler
2023-01-02T00:40:06,445  INFO QSimProvider:122 Added MobsimEngine class org.matsim.core.mobsim.qsim.qnetsimengine.QNetsimEngineWithThreadpool
2023-01-02T00:40:06,447  INFO QSimProvider:122 Added MobsimEngine class org.matsim.core.mobsim.qsim.DefaultTeleportationEngine
2023-01-02T00:40:06,448  INFO QSimProvider:134 Added DepartureHandler class org.matsim.core.mobsim.qsim.DefaultTeleportationEngine
2023-01-02T00:40:06,451  INFO QSimProvider:140 Added AgentSource class org.matsim.core.mobsim.qsim.agents.PopulationAgentSource
2023-01-02T00:40:06,452  INFO MobsimListenerManager:49 calling addQueueSimulationListener
2023-01-02T00:40:06,456  INFO MobsimListenerManager:53   assigned class org.matsim.core.mobsim.framework.listeners.MobsimListener to interface org.matsim.core.mobsim.qsim.messagequeueengine.MessageQueueEngine
2023-01-02T00:40:06,457  INFO MobsimListenerManager:53   assigned class org.matsim.core.mobsim.framework.listeners.MobsimListener to interface org.matsim.core.mobsim.framework.listeners.MobsimListener
2023-01-02T00:40:06,459  INFO MobsimListenerManager:53   assigned class org.matsim.core.mobsim.framework.listeners.MobsimListener to interface org.matsim.core.mobsim.framework.listeners.MobsimBeforeSimStepListener
2023-01-02T00:40:06,459  INFO QSimProvider:146 Added MobsimListener class org.matsim.core.mobsim.qsim.messagequeueengine.MessageQueueEngine
2023-01-02T00:40:06,462  INFO AbstractQNetsimEngine:427 Assigned 95 nodes and 176 links to QSimEngineRunner #0
2023-01-02T00:40:06,464  INFO AbstractQNetsimEngine:365 SIMULATION (QNetsimEngine) AT 05:58:30 : #links=1 #nodes=1
2023-01-02T00:40:06,464  INFO QSim:553 SIMULATION (NEW QSim) AT 05:58:30 : #Veh=100 lost=0 simT=0.0s realT=0s; (s/r): 0.0
2023-01-02T00:40:06,479  INFO AbstractQNetsimEngine:365 SIMULATION (QNetsimEngine) AT 06:00:00 : #links=19 #nodes=11
2023-01-02T00:40:06,479  INFO QSim:553 SIMULATION (NEW QSim) AT 06:00:00 : #Veh=100 lost=0 simT=90.0s realT=0s; (s/r): Infinity
2023-01-02T00:40:06,864  INFO AbstractQNetsimEngine:365 SIMULATION (QNetsimEngine) AT 07:00:00 : #links=0 #nodes=0
2023-01-02T00:40:06,864  INFO QSim:553 SIMULATION (NEW QSim) AT 07:00:00 : #Veh=40 lost=0 simT=3690.0s realT=0s; (s/r): Infinity
2023-01-02T00:40:07,194  INFO AbstractQNetsimEngine:365 SIMULATION (QNetsimEngine) AT 08:00:00 : #links=0 #nodes=0
2023-01-02T00:40:07,194  INFO QSim:553 SIMULATION (NEW QSim) AT 08:00:00 : #Veh=10 lost=0 simT=7290.0s realT=0s; (s/r): Infinity
2023-01-02T00:40:07,527  INFO AbstractQNetsimEngine:365 SIMULATION (QNetsimEngine) AT 09:00:00 : #links=0 #nodes=0
2023-01-02T00:40:07,528  INFO QSim:553 SIMULATION (NEW QSim) AT 09:00:00 : #Veh=10 lost=0 simT=10890.0s realT=1s; (s/r): 10890.0
2023-01-02T00:40:07,885  INFO AbstractQNetsimEngine:365 SIMULATION (QNetsimEngine) AT 10:00:00 : #links=0 #nodes=0
2023-01-02T00:40:07,885  INFO QSim:553 SIMULATION (NEW QSim) AT 10:00:00 : #Veh=10 lost=0 simT=14490.0s realT=1s; (s/r): 14490.0
2023-01-02T00:40:08,224  INFO AbstractQNetsimEngine:365 SIMULATION (QNetsimEngine) AT 11:00:00 : #links=0 #nodes=0
2023-01-02T00:40:08,224  INFO QSim:553 SIMULATION (NEW QSim) AT 11:00:00 : #Veh=10 lost=0 simT=18090.0s realT=1s; (s/r): 18090.0
2023-01-02T00:40:08,534  INFO AbstractQNetsimEngine:365 SIMULATION (QNetsimEngine) AT 12:00:00 : #links=0 #nodes=0
2023-01-02T00:40:08,535  INFO QSim:553 SIMULATION (NEW QSim) AT 12:00:00 : #Veh=10 lost=0 simT=21690.0s realT=2s; (s/r): 10845.0
2023-01-02T00:40:08,768  INFO AbstractController$9:234 ### ITERATION 10 fires after mobsim event
2023-01-02T00:40:08,768  INFO Gbl:191 Thread performance: Thread=class org.matsim.core.events.SimStepParallelEventsManagerImpl$ProcessEventsRunnable0  cpu-time=0.484375sec
2023-01-02T00:40:08,768  INFO ControlerListenerManagerImpl:248 calling notifyAfterMobsim on org.matsim.analysis.LegTimesControlerListener
2023-01-02T00:40:08,773  INFO LegTimesControlerListener:50 [10] average trip (probably: leg) duration is: 266 seconds = 00:04:26
2023-01-02T00:40:08,775  INFO ControlerListenerManagerImpl:248 calling notifyAfterMobsim on org.matsim.core.events.MobsimScopeEventHandling
2023-01-02T00:40:08,776  INFO ControlerListenerManagerImpl:248 calling notifyAfterMobsim on org.matsim.core.scoring.EventsToActivities$1
2023-01-02T00:40:08,777  INFO ControlerListenerManagerImpl:251 [it.10] all ControlerAfterMobsimListeners called.
2023-01-02T00:40:08,777  INFO AbstractController$4:159 ### ITERATION 10 fires scoring event
2023-01-02T00:40:08,777  INFO ControlerListenerManagerImpl:183 calling notifyScoring on org.matsim.core.scoring.PlansScoringImpl
2023-01-02T00:40:08,778  INFO NewScoreAssignerImpl:57 it: 10 msaStart: null
2023-01-02T00:40:08,778  INFO ControlerListenerManagerImpl:194 [it.10] all ControlerScoringListeners called.
2023-01-02T00:40:08,779  INFO AbstractController$5:167 ### ITERATION 10 fires iteration end event
2023-01-02T00:40:08,779  INFO ControlerListenerManagerImpl:160 calling notifyIterationEnds on org.matsim.core.controler.corelisteners.EventsHandlingImpl
2023-01-02T00:40:08,781  INFO EventsManagerImpl:181 removing Event-Handler: org.matsim.core.events.algorithms.EventWriterXML
2023-01-02T00:40:08,781  INFO EventsManagerImpl:181 removing Event-Handler: org.matsim.core.events.algorithms.EventWriterXML
2023-01-02T00:40:08,781  INFO ControlerListenerManagerImpl:160 calling notifyIterationEnds on org.matsim.core.scoring.PlansScoringImpl
2023-01-02T00:40:08,784  INFO ControlerListenerManagerImpl:167 calling notifyIterationEnds on org.matsim.counts.CountsControlerListener
2023-01-02T00:40:08,792  INFO CountSimComparisonTableWriter:93 Writing CountsSimComparison to ./output/ITERS/it.10/10.countscompare.txt
2023-01-02T00:40:08,794  INFO CountSimComparisonTableWriter:134 Writing 'average weekday traffic volume' to ./output/ITERS/it.10/10.countscompareAWTV.txt
2023-01-02T00:40:08,796  INFO ControlerListenerManagerImpl:167 calling notifyIterationEnds on org.matsim.analysis.ModeStatsControlerListener
2023-01-02T00:40:08,797  INFO ModeStatsControlerListener:144 Mode shares over all 200.0 trips found. MainModeIdentifier: class org.matsim.core.router.RoutingModeMainModeIdentifier
2023-01-02T00:40:08,797  INFO ModeStatsControlerListener:151 -- mode share of mode bicycle = 0.2
2023-01-02T00:40:08,801  INFO ModeStatsControlerListener:151 -- mode share of mode car = 0.8
2023-01-02T00:40:08,891  INFO ControlerListenerManagerImpl:167 calling notifyIterationEnds on org.matsim.analysis.ScoreStatsControlerListener
2023-01-02T00:40:08,891  INFO ScoreStatsControlerListener:181 -- avg. score of the executed plan of each agent: 79.12997969491964
2023-01-02T00:40:08,893  INFO ScoreStatsControlerListener:182 -- avg. score of the worst plan of each agent: 79.0896669740364
2023-01-02T00:40:08,896  INFO ScoreStatsControlerListener:183 -- avg. of the avg. plan score per agent: 79.11376942776602
2023-01-02T00:40:08,897  INFO ScoreStatsControlerListener:184 -- avg. score of the best plan of each agent: 79.13538470720165
2023-01-02T00:40:08,953  INFO ControlerListenerManagerImpl:167 calling notifyIterationEnds on org.matsim.analysis.IterationTravelStatsControlerListener
2023-01-02T00:40:08,955  INFO TravelDistanceStats:143 -- average leg distance per plan (executed plans only): 1751.9244397132225 meters
2023-01-02T00:40:08,956  INFO TravelDistanceStats:144 average leg distance per Person (executed plans only): 3503.848879426445 meters (statistic on all 200 legs which have a finite distance)
2023-01-02T00:40:08,960  INFO TravelDistanceStats:145 -- average trip distance per plan (executed plans only): 1751.9244397132225 meters
2023-01-02T00:40:08,960  INFO TravelDistanceStats:146 average trip distance per Person (executed plans only): 3503.848879426445 meters (statistic on all 200 trips which have a finite distance)
2023-01-02T00:40:08,961  INFO TravelDistanceStats:147 (TravelDistanceStats takes an average over all legs where the simulation reports travelled (network) distances
2023-01-02T00:40:08,962  INFO TravelDistanceStats:148 (and teleported legs whose route contains a distance.)
2023-01-02T00:40:09,336  INFO ControlerListenerManagerImpl:167 calling notifyIterationEnds on org.matsim.analysis.LegHistogramListener
2023-01-02T00:40:09,343  INFO LegHistogramListener:72 number of legs:	200	100%
2023-01-02T00:40:09,344  INFO LegHistogramListener:79 number of bicycle legs:	40	20.0%
2023-01-02T00:40:09,346  INFO LegHistogramListener:79 number of car legs:	160	80.0%
2023-01-02T00:40:09,536  INFO ControlerListenerManagerImpl:167 calling notifyIterationEnds on org.matsim.analysis.LinkStatsControlerListener
2023-01-02T00:40:09,537  INFO ControlerListenerManagerImpl:171 [it.10] all ControlerIterationEndsListeners called.
2023-01-02T00:40:09,608  INFO AbstractController:181 ### ITERATION 10 ENDS
2023-01-02T00:40:09,608  INFO AbstractController:182 ###################################################
2023-01-02T00:40:09,610  INFO MatsimRuntimeModifications:79 S H U T D O W N   ---   start shutdown.
2023-01-02T00:40:09,610  INFO ControlerListenerManagerImpl:121 calling notifyShutdown on org.matsim.core.controler.corelisteners.EventsHandlingImpl
2023-01-02T00:40:09,614  INFO ControlerListenerManagerImpl:121 calling notifyShutdown on org.matsim.core.controler.corelisteners.DumpDataAtEndImpl
2023-01-02T00:40:09,618  INFO Counter:69 [PopulationWriter] dumped person # 1
2023-01-02T00:40:09,618  INFO Counter:69 [PopulationWriter] dumped person # 2
2023-01-02T00:40:09,619  INFO Counter:69 [PopulationWriter] dumped person # 4
2023-01-02T00:40:09,620  INFO Counter:69 [PopulationWriter] dumped person # 8
2023-01-02T00:40:09,621  INFO Counter:69 [PopulationWriter] dumped person # 16
2023-01-02T00:40:09,623  INFO Counter:69 [PopulationWriter] dumped person # 32
2023-01-02T00:40:09,627  INFO Counter:69 [PopulationWriter] dumped person # 64
2023-01-02T00:40:09,633  INFO PopulationWriter:144 Population written to: ./output/output_plans.xml.gz
2023-01-02T00:40:09,634  INFO Counter:74 [PopulationWriter] dumped person # 100
2023-01-02T00:40:09,638  INFO NetworkWriter:69 Writing network to file: ./output/output_network.xml.gz...
2023-01-02T00:40:09,734  INFO NetworkWriter:72 done.
2023-01-02T00:40:09,746  INFO Config:601 setting context to [file:/C:/Users/ASUS/Desktop/ACADEMIC%20SEM%2008/FYP/MATSim/matsim-14.0/]
2023-01-02T00:40:09,752  INFO Config:601 setting context to [file:/C:/Users/ASUS/Desktop/ACADEMIC%20SEM%2008/FYP/MATSim/matsim-14.0/]
2023-01-02T00:40:09,757  INFO Config:601 setting context to [file:/C:/Users/ASUS/Desktop/ACADEMIC%20SEM%2008/FYP/MATSim/matsim-14.0/]
2023-01-02T00:40:09,760  INFO Config:601 setting context to [file:/C:/Users/ASUS/Desktop/ACADEMIC%20SEM%2008/FYP/MATSim/matsim-14.0/]
2023-01-02T00:40:09,764  INFO Config:601 setting context to [file:/C:/Users/ASUS/Desktop/ACADEMIC%20SEM%2008/FYP/MATSim/matsim-14.0/]
2023-01-02T00:40:09,777  INFO Config:601 setting context to [file:/C:/Users/ASUS/Desktop/ACADEMIC%20SEM%2008/FYP/MATSim/matsim-14.0/]
2023-01-02T00:40:09,784  INFO Config:601 setting context to [file:/C:/Users/ASUS/Desktop/ACADEMIC%20SEM%2008/FYP/MATSim/matsim-14.0/]
2023-01-02T00:40:09,789  INFO Config:601 setting context to [file:/C:/Users/ASUS/Desktop/ACADEMIC%20SEM%2008/FYP/MATSim/matsim-14.0/]
2023-01-02T00:40:09,793  INFO Config:601 setting context to [file:/C:/Users/ASUS/Desktop/ACADEMIC%20SEM%2008/FYP/MATSim/matsim-14.0/]
2023-01-02T00:40:09,798  INFO Config:601 setting context to [file:/C:/Users/ASUS/Desktop/ACADEMIC%20SEM%2008/FYP/MATSim/matsim-14.0/]
2023-01-02T00:40:09,803  INFO Config:601 setting context to [file:/C:/Users/ASUS/Desktop/ACADEMIC%20SEM%2008/FYP/MATSim/matsim-14.0/]
2023-01-02T00:40:09,808  INFO Config:601 setting context to [file:/C:/Users/ASUS/Desktop/ACADEMIC%20SEM%2008/FYP/MATSim/matsim-14.0/]
2023-01-02T00:40:09,813  INFO Config:601 setting context to [file:/C:/Users/ASUS/Desktop/ACADEMIC%20SEM%2008/FYP/MATSim/matsim-14.0/]
2023-01-02T00:40:09,819  INFO Config:601 setting context to [file:/C:/Users/ASUS/Desktop/ACADEMIC%20SEM%2008/FYP/MATSim/matsim-14.0/]
2023-01-02T00:40:09,828  INFO Config:601 setting context to [file:/C:/Users/ASUS/Desktop/ACADEMIC%20SEM%2008/FYP/MATSim/matsim-14.0/]
2023-01-02T00:40:09,832  INFO Config:601 setting context to [file:/C:/Users/ASUS/Desktop/ACADEMIC%20SEM%2008/FYP/MATSim/matsim-14.0/]
2023-01-02T00:40:09,837  INFO Config:601 setting context to [file:/C:/Users/ASUS/Desktop/ACADEMIC%20SEM%2008/FYP/MATSim/matsim-14.0/]
2023-01-02T00:40:09,842  INFO Config:601 setting context to [file:/C:/Users/ASUS/Desktop/ACADEMIC%20SEM%2008/FYP/MATSim/matsim-14.0/]
2023-01-02T00:40:09,858  INFO Config:601 setting context to [file:/C:/Users/ASUS/Desktop/ACADEMIC%20SEM%2008/FYP/MATSim/matsim-14.0/]
2023-01-02T00:40:09,862  INFO Config:601 setting context to [file:/C:/Users/ASUS/Desktop/ACADEMIC%20SEM%2008/FYP/MATSim/matsim-14.0/]
2023-01-02T00:40:09,868  INFO Config:601 setting context to [file:/C:/Users/ASUS/Desktop/ACADEMIC%20SEM%2008/FYP/MATSim/matsim-14.0/]
2023-01-02T00:40:09,872  INFO Config:601 setting context to [file:/C:/Users/ASUS/Desktop/ACADEMIC%20SEM%2008/FYP/MATSim/matsim-14.0/]
2023-01-02T00:40:09,875  INFO Config:601 setting context to [file:/C:/Users/ASUS/Desktop/ACADEMIC%20SEM%2008/FYP/MATSim/matsim-14.0/]
2023-01-02T00:40:09,878  INFO Config:601 setting context to [file:/C:/Users/ASUS/Desktop/ACADEMIC%20SEM%2008/FYP/MATSim/matsim-14.0/]
2023-01-02T00:40:09,882  INFO Config:601 setting context to [file:/C:/Users/ASUS/Desktop/ACADEMIC%20SEM%2008/FYP/MATSim/matsim-14.0/]
2023-01-02T00:40:09,885  INFO Config:601 setting context to [file:/C:/Users/ASUS/Desktop/ACADEMIC%20SEM%2008/FYP/MATSim/matsim-14.0/]
2023-01-02T00:40:09,896  INFO MatsimVehicleWriter:54 about to write vehicles to: ./output/output_vehicles.xml.gz
2023-01-02T00:40:09,897  INFO VehicleWriterV2:63 about to write vehicles to: ./output/output_vehicles.xml.gz
2023-01-02T00:40:09,983  INFO MatsimVehicleWriter:54 about to write vehicles to: ./output/output_allVehicles.xml.gz
2023-01-02T00:40:09,984  INFO VehicleWriterV2:63 about to write vehicles to: ./output/output_allVehicles.xml.gz
2023-01-02T00:40:10,002  INFO HouseholdsWriterV10:66 about to write  households to: ./output/output_households.xml.gz
2023-01-02T00:40:10,005  INFO Counter:74 [HouseholdsWriter] wrote household # 0
2023-01-02T00:40:10,077  INFO ControlerListenerManagerImpl:126 calling notifyShutdown on org.matsim.analysis.ScoreStatsControlerListener
2023-01-02T00:40:10,081  INFO ControlerListenerManagerImpl:126 calling notifyShutdown on org.matsim.analysis.IterationTravelStatsControlerListener
2023-01-02T00:40:10,085  INFO IterationTravelStatsControlerListener:108 Writing all Person and Attributes to personscsv
2023-01-02T00:40:10,111  INFO IterationTravelStatsControlerListener:152 ...done
2023-01-02T00:40:10,112  INFO ControlerListenerManagerImpl:129 all ControlerShutdownListeners called.
2023-01-02T00:40:10,116  INFO MatsimRuntimeModifications:102 S H U T D O W N   ---   shutdown completed.
2023-01-02T00:40:10,122  INFO OutputDirectoryLogging:170 closing the logfile, i.e. messages sent to the logger after this message are not written to the logfile.
