2023-01-15T00:14:38,542  INFO Gbl:63 JVM: 17.0.1; Oracle Corporation; mixed mode, sharing; 64-bit
2023-01-15T00:14:38,543  INFO Gbl:67 OS: Windows 10; 10.0; amd64
2023-01-15T00:14:38,544  INFO Gbl:70 CPU cores: 8
2023-01-15T00:14:38,551  INFO Gbl:71 max. Memory: 994.0MB (1042284544B)
2023-01-15T00:14:38,552  INFO Gbl:109 MATSim-Build: r80b56afa925946d766cb91527373393989f56e81 (2022-04-11 15:06:39)
2023-01-15T00:14:38,555  INFO ControlerListenerManagerImpl:107 calling notifyStartup on org.matsim.guice.DependencyGraphControlerListener
2023-01-15T00:14:38,560  INFO MemoryObserver:41 used RAM: 30 MB  free: 9 MB  total: 40 MB
2023-01-15T00:14:38,792  INFO ControlerListenerManagerImpl:107 calling notifyStartup on org.matsim.counts.CountsControlerListener
2023-01-15T00:14:38,793  INFO ControlerListenerManagerImpl:107 calling notifyStartup on org.matsim.analysis.ModeStatsControlerListener
2023-01-15T00:14:38,795  INFO ControlerListenerManagerImpl:107 calling notifyStartup on org.matsim.analysis.ScoreStatsControlerListener
2023-01-15T00:14:38,800  INFO ControlerListenerManagerImpl:110 all ControlerStartupListeners called.
2023-01-15T00:14:38,802  INFO ControlerUtils:79 config dump before iterations start
2023-01-15T00:14:38,839  INFO ControlerUtils:83 

<?xml version="1.0" encoding="UTF-8"?>
<!DOCTYPE config SYSTEM "http://www.matsim.org/files/dtd/config_v2.dtd">
<config>
	<module name="JDEQSim" >
		<param name="carSize" value="7.5" />
		<param name="endTime" value="undefined" />
		<param name="flowCapacityFactor" value="1.0" />
		<param name="gapTravelSpeed" value="15.0" />
		<param name="minimumInFlowCapacity" value="1800.0" />
		<param name="squeezeTime" value="1800.0" />
		<param name="storageCapacityFactor" value="1.0" />
	</module>
	<module name="ReplanningAnnealer" >
		<!-- Activate the scaling of replanning modules using an annealing approach rather than fixed rates. -->
		<param name="activateAnnealingModule" value="false" />
	</module>
	<module name="TimeAllocationMutator" >
		<!-- Default:true; Defines whether time mutation changes an activity's duration. -->
		<param name="mutationAffectsDuration" value="true" />
		<!-- Default:1800.0; Defines how many seconds a time mutation can maximally shift a time. -->
		<param name="mutationRange" value="1800.0" />
	</module>
	<module name="changeMode" >
		<!-- Defines whether car availability is considered be considered or not. An agent has no car only if it has no license, or never access to a car. Default: true -->
		<param name="ignoreCarAvailability" value="true" />
		<!-- Defines the mode switch behavior. Possible values [fromAllModesToSpecifiedModes, fromSpecifiedModesToSpecifiedModes] Default: fromSpecifiedModesToSpecifiedModes. -->
		<param name="modeSwitchBehavior" value="fromSpecifiedModesToSpecifiedModes" />
		<!-- Defines all the modes available, including chain-based modes, seperated by commas -->
		<param name="modes" value="car,pt" />
	</module>
	<module name="controler" >
		<!-- Compression algorithm to use when writing out data to files. Possible values: [none, gzip, lz4, zst] -->
		<param name="compressionType" value="gzip" />
		<!-- Sets whether graphs showing some analyses should automatically be generated during the simulation. The generation of graphs usually takes a small amount of time that does not have any weight in big simulations, but add a significant overhead in smaller runs or in test cases where the graphical output is not even requested. -->
		<param name="createGraphs" value="true" />
		<!-- true if at the end of a run, plans, network, config etc should be dumped to a file -->
		<param name="dumpDataAtEnd" value="true" />
		<!-- Default=false. If enabled, the router takes travel times needed for turning moves into account. Cannot be used if the (Fast)AStarLandmarks routing or TravelTimeCalculator.separateModes is enabled. -->
		<param name="enableLinkToLinkRouting" value="false" />
		<!-- Default=xml; Specifies the file format for writing events. Currently supported: [xml, pb, json]
		Multiple values can be specified separated by commas (','). -->
		<param name="eventsFileFormat" value="xml" />
		<!-- Default=0. First Iteration of a simulation. -->
		<param name="firstIteration" value="0" />
		<!-- Default=1000. Last Iteration of a simulation. -->
		<param name="lastIteration" value="100" />
		<!-- Defines which mobility simulation will be used. Currently supported: qsim JDEQSim hermes 
		Depending on the chosen mobsim, you'll have to add additional config modules to configure the corresponding mobsim.
		For 'qsim', add a module 'qsim' to the config. -->
		<param name="mobsim" value="qsim" />
		<param name="outputDirectory" value="./output" />
		<!-- Possible values: failIfDirectoryExists, overwriteExistingFiles, deleteDirectoryIfExists -->
		<param name="overwriteFiles" value="failIfDirectoryExists" />
		<!-- The type of routing (least cost path) algorithm used, may have the values: [Dijkstra, AStarLandmarks, FastDijkstra, FastAStarLandmarks, SpeedyALT] -->
		<param name="routingAlgorithmType" value="AStarLandmarks" />
		<!-- An identifier for the current run which is used as prefix for output files and mentioned in output xml files etc. -->
		<param name="runId" value="null" />
		<!-- Comma-separated list of visualizer output file formats. `transims', `googleearth', and `otfvis'. -->
		<param name="snapshotFormat" value="" />
		<!-- iterationNumber % writeEventsInterval == 0 defines in which iterations events are written to a file. `0' disables events writing completely. -->
		<param name="writeEventsInterval" value="50" />
		<!-- iterationNumber % writePlansInterval == 0 defines (hopefully) in which iterations plans are written to a file. `0' disables plans writing completely.  Some plans in early iterations are always written -->
		<param name="writePlansInterval" value="50" />
		<!-- iterationNumber % writeSnapshotsInterval == 0 defines in which iterations snapshots are written to a file. `0' disables snapshots writing completely -->
		<param name="writeSnapshotsInterval" value="1" />
		<!-- iterationNumber % writeEventsInterval == 0 defines in which iterations trips CSV are written to a file. `0' disables trips writing completely. -->
		<param name="writeTripsInterval" value="50" />
	</module>
	<module name="counts" >
		<!-- Transport modes that will be respected for the counts comparison. 'car' is default, which includes also bussed from the pt simulation module. Use this parameter in combination with 'filterModes' = true! -->
		<param name="analyzedModes" value="car" />
		<!-- Specifies over how many iterations the link volumes should be averaged that are used for the counts comparison. Use 1 or 0 to only use the link volumes of a single iteration. This values cannot be larger than the value specified for writeCountsInterval -->
		<param name="averageCountsOverIterations" value="5" />
		<!-- factor by which to re-scale the simulated values.  necessary when simulation runs with something different from 100%.  needs to be adapted manually -->
		<param name="countsScaleFactor" value="1.0" />
		<!-- distance to distanceFilterCenterNode to include counting stations. The unit of distance is the Euclidean distance implied by the coordinate system -->
		<param name="distanceFilter" value="null" />
		<!-- node id for center node of distance filter -->
		<param name="distanceFilterCenterNode" value="null" />
		<!-- If true, link counts from legs performed on modes not included in the 'analyzedModes' parameter are ignored. -->
		<param name="filterModes" value="false" />
		<!-- The Coordinates Reference System in which the coordinates are expressed in the input file. At import, the coordinates will be converted to the coordinate system defined in "global", and willbe converted back at export. If not specified, no conversion happens. -->
		<param name="inputCRS" value="null" />
		<!-- input file name to counts package -->
		<param name="inputCountsFile" value="null" />
		<!-- possible values: `html', `kml', `txt', `all' -->
		<param name="outputformat" value="txt" />
		<!-- Specifies how often the counts comparison should be calculated and written. -->
		<param name="writeCountsInterval" value="10" />
	</module>
	<module name="facilities" >
		<!-- This defines how facilities should be created. Possible values: none fromFile setInScenario onePerActivityLinkInPlansFile onePerActivityLinkInPlansFileExceptWhenCoordinatesAreGiven onePerActivityLocationInPlansFile  -->
		<param name="facilitiesSource" value="none" />
		<!-- A prefix to be used for auto-generated IDs. -->
		<param name="idPrefix" value="f_auto_" />
		<!-- The Coordinates Reference System in which the coordinates are expressed in the input file. At import, the coordinates will be converted to the coordinate system defined in "global", and willbe converted back at export. If not specified, no conversion happens. -->
		<param name="inputCRS" value="null" />
		<param name="inputFacilitiesFile" value="null" />
		<param name="inputFacilityAttributesFile" value="null" />
		<param name="insistingOnUsingDeprecatedFacilitiesAttributeFile" value="false" />
	</module>
	<module name="global" >
		<param name="coordinateSystem" value="Atlantis" />
		<param name="defaultDelimiter" value=";" />
		<param name="insistingOnDeprecatedConfigVersion" value="true" />
		<!-- "global" number of threads.  This number is used, e.g., for replanning, but NOT in QSim.  This can typically be set to as many cores as you have available, or possibly even slightly more. -->
		<param name="numberOfThreads" value="2" />
		<param name="randomSeed" value="4711" />
	</module>
	<module name="hermes" >
		<!-- Simulation End Time -->
		<param name="endTime" value="30:00:00" />
		<param name="flowCapacityFactor" value="1.0" />
		<param name="mainMode" value="car" />
		<param name="storageCapacityFactor" value="1.0" />
		<!-- time in seconds.  Time after which the frontmost vehicle on a link is called `stuck' if it does not move. Set to Integer.MAX_VALUE to disable this behavior -->
		<param name="stuckTime" value="10" />
		<!-- treats PT as deterministic. PT vehicles will run with a steady speed. Should be used with separate network layers for PT and other network modes. -->
		<param name="useDeterministicPt" value="false" />
	</module>
	<module name="households" >
		<param name="inputFile" value="null" />
		<param name="inputHouseholdAttributesFile" value="null" />
		<param name="insistingOnUsingDeprecatedHouseholdsAttributeFile" value="false" />
	</module>
	<module name="linkStats" >
		<!-- Specifies over how many iterations the link volumes should be averaged that are used for the link statistics. Use 1 or 0 to only use the link volumes of a single iteration. This values cannot be larger than the value specified for writeLinkStatsInterval -->
		<param name="averageLinkStatsOverIterations" value="5" />
		<!-- Specifies how often the link stats should be calculated and written. Use 0 to disable the generation of link stats. -->
		<param name="writeLinkStatsInterval" value="50" />
	</module>
	<module name="network" >
		<!-- The Coordinates Reference System in which the coordinates are expressed in the input file. At import, the coordinates will be converted to the coordinate system defined in "global", and willbe converted back at export. If not specified, no conversion happens. -->
		<param name="inputCRS" value="null" />
		<param name="inputChangeEventsFile" value="null" />
		<param name="inputNetworkFile" value="network.xml" />
		<param name="laneDefinitionsFile" value="null" />
		<param name="timeVariantNetwork" value="false" />
	</module>
	<module name="parallelEventHandling" >
		<!-- Estimated number of events during mobsim run. An optional optimization hint for the framework. -->
		<param name="estimatedNumberOfEvents" value="null" />
		<!-- Size of the events Queue. Increase for very large scenarios -->
		<param name="eventsQueueSize" value="131072" />
		<!-- Number of threads for parallel events handler. _null_ means the framework decides by itself. 0 is currently not possible. -->
		<param name="numberOfThreads" value="null" />
		<!-- If enabled, each event handler is assigned to its own thread. Note that enabling this feature disabled the numberOfThreads option! This feature is still experimental! -->
		<param name="oneThreadPerHandler" value="false" />
		<!-- If enabled, it is ensured that all events that are created during a time step of the mobility simulation are processed before the next time step is simulated. E.g. neccessary when within-day replanning is used. -->
		<param name="synchronizeOnSimSteps" value="true" />
	</module>
	<module name="planCalcScore" >
		<!-- logit model scale parameter. default: 1.  Has name and default value for historical reasons (see Bryan Raney's phd thesis). -->
		<param name="BrainExpBeta" value="1.0" />
		<param name="PathSizeLogitBeta" value="1.0" />
		<!-- fraction of iterations at which MSA score averaging is started. The matsim theory department suggests to use this together with switching off choice set innovation (where a similar switch exists), but it has not been tested yet. -->
		<param name="fractionOfIterationsToStartScoreMSA" value="null" />
		<!-- new_score = (1-learningRate)*old_score + learningRate * score_from_mobsim.  learning rates close to zero emulate score averaging, but slow down initial convergence -->
		<param name="learningRate" value="1.0" />
		<!-- There used to be a plateau between duration=0 and duration=zeroUtilityDuration. This caused durations to evolve to zero once they were below zeroUtilityDuration, causing problems.  Only use this switch if you need to be backwards compatible with some old results.  (changed nov'13) -->
		<param name="usingOldScoringBelowZeroUtilityDuration" value="false" />
		<!-- write a plans file in each iteration directory which contains what each agent actually did, and the score it received. -->
		<param name="writeExperiencedPlans" value="false" />
		<parameterset type="scoringParameters" >
			<param name="earlyDeparture" value="-0.0" />
			<param name="lateArrival" value="-18.0" />
			<param name="marginalUtilityOfMoney" value="1.0" />
			<param name="performing" value="6.0" />
			<param name="subpopulation" value="null" />
			<param name="utilityOfLineSwitch" value="-1.0" />
			<param name="waiting" value="-0.0" />
			<param name="waitingPt" value="-6.0" />
			<parameterset type="activityParams" >
				<param name="activityType" value="dummy" />
				<param name="closingTime" value="undefined" />
				<param name="earliestEndTime" value="undefined" />
				<param name="latestStartTime" value="undefined" />
				<param name="minimalDuration" value="undefined" />
				<param name="openingTime" value="undefined" />
				<param name="priority" value="1.0" />
				<param name="scoringThisActivityAtAll" value="true" />
				<!-- typical duration of activity.  needs to be defined and non-zero.  in sec. -->
				<param name="typicalDuration" value="02:00:00" />
				<!-- method to compute score at typical duration.  Options: | uniform | relative | Use uniform for backwards compatibility (all activities same score; higher proba to drop long acts). -->
				<param name="typicalDurationScoreComputation" value="relative" />
			</parameterset>
			<parameterset type="activityParams" >
				<param name="activityType" value="car interaction" />
				<param name="closingTime" value="undefined" />
				<param name="earliestEndTime" value="undefined" />
				<param name="latestStartTime" value="undefined" />
				<param name="minimalDuration" value="undefined" />
				<param name="openingTime" value="undefined" />
				<param name="priority" value="1.0" />
				<param name="scoringThisActivityAtAll" value="false" />
				<param name="typicalDuration" value="undefined" />
				<param name="typicalDurationScoreComputation" value="relative" />
			</parameterset>
			<parameterset type="activityParams" >
				<param name="activityType" value="pt interaction" />
				<param name="closingTime" value="undefined" />
				<param name="earliestEndTime" value="undefined" />
				<param name="latestStartTime" value="undefined" />
				<param name="minimalDuration" value="undefined" />
				<param name="openingTime" value="undefined" />
				<param name="priority" value="1.0" />
				<param name="scoringThisActivityAtAll" value="false" />
				<param name="typicalDuration" value="undefined" />
				<param name="typicalDurationScoreComputation" value="relative" />
			</parameterset>
			<parameterset type="activityParams" >
				<param name="activityType" value="bike interaction" />
				<param name="closingTime" value="undefined" />
				<param name="earliestEndTime" value="undefined" />
				<param name="latestStartTime" value="undefined" />
				<param name="minimalDuration" value="undefined" />
				<param name="openingTime" value="undefined" />
				<param name="priority" value="1.0" />
				<param name="scoringThisActivityAtAll" value="false" />
				<param name="typicalDuration" value="undefined" />
				<param name="typicalDurationScoreComputation" value="relative" />
			</parameterset>
			<parameterset type="activityParams" >
				<param name="activityType" value="drt interaction" />
				<param name="closingTime" value="undefined" />
				<param name="earliestEndTime" value="undefined" />
				<param name="latestStartTime" value="undefined" />
				<param name="minimalDuration" value="undefined" />
				<param name="openingTime" value="undefined" />
				<param name="priority" value="1.0" />
				<param name="scoringThisActivityAtAll" value="false" />
				<param name="typicalDuration" value="undefined" />
				<param name="typicalDurationScoreComputation" value="relative" />
			</parameterset>
			<parameterset type="activityParams" >
				<param name="activityType" value="taxi interaction" />
				<param name="closingTime" value="undefined" />
				<param name="earliestEndTime" value="undefined" />
				<param name="latestStartTime" value="undefined" />
				<param name="minimalDuration" value="undefined" />
				<param name="openingTime" value="undefined" />
				<param name="priority" value="1.0" />
				<param name="scoringThisActivityAtAll" value="false" />
				<param name="typicalDuration" value="undefined" />
				<param name="typicalDurationScoreComputation" value="relative" />
			</parameterset>
			<parameterset type="activityParams" >
				<param name="activityType" value="other interaction" />
				<param name="closingTime" value="undefined" />
				<param name="earliestEndTime" value="undefined" />
				<param name="latestStartTime" value="undefined" />
				<param name="minimalDuration" value="undefined" />
				<param name="openingTime" value="undefined" />
				<param name="priority" value="1.0" />
				<param name="scoringThisActivityAtAll" value="false" />
				<param name="typicalDuration" value="undefined" />
				<param name="typicalDurationScoreComputation" value="relative" />
			</parameterset>
			<parameterset type="activityParams" >
				<param name="activityType" value="walk interaction" />
				<param name="closingTime" value="undefined" />
				<param name="earliestEndTime" value="undefined" />
				<param name="latestStartTime" value="undefined" />
				<param name="minimalDuration" value="undefined" />
				<param name="openingTime" value="undefined" />
				<param name="priority" value="1.0" />
				<param name="scoringThisActivityAtAll" value="false" />
				<param name="typicalDuration" value="undefined" />
				<param name="typicalDurationScoreComputation" value="relative" />
			</parameterset>
			<parameterset type="activityParams" >
				<param name="activityType" value="h" />
				<param name="closingTime" value="undefined" />
				<param name="earliestEndTime" value="undefined" />
				<param name="latestStartTime" value="undefined" />
				<param name="minimalDuration" value="08:00:00" />
				<param name="openingTime" value="undefined" />
				<param name="priority" value="1.0" />
				<param name="scoringThisActivityAtAll" value="true" />
				<param name="typicalDuration" value="12:00:00" />
				<param name="typicalDurationScoreComputation" value="relative" />
			</parameterset>
			<parameterset type="activityParams" >
				<param name="activityType" value="w" />
				<param name="closingTime" value="18:00:00" />
				<param name="earliestEndTime" value="undefined" />
				<param name="latestStartTime" value="09:00:00" />
				<param name="minimalDuration" value="06:00:00" />
				<param name="openingTime" value="07:00:00" />
				<param name="priority" value="1.0" />
				<param name="scoringThisActivityAtAll" value="true" />
				<param name="typicalDuration" value="08:00:00" />
				<param name="typicalDurationScoreComputation" value="relative" />
			</parameterset>
			<parameterset type="activityParams" >
				<param name="activityType" value="bicycle interaction" />
				<param name="closingTime" value="undefined" />
				<param name="earliestEndTime" value="undefined" />
				<param name="latestStartTime" value="undefined" />
				<param name="minimalDuration" value="undefined" />
				<param name="openingTime" value="undefined" />
				<param name="priority" value="1.0" />
				<param name="scoringThisActivityAtAll" value="false" />
				<param name="typicalDuration" value="undefined" />
				<param name="typicalDurationScoreComputation" value="relative" />
			</parameterset>
			<parameterset type="activityParams" >
				<param name="activityType" value="ride interaction" />
				<param name="closingTime" value="undefined" />
				<param name="earliestEndTime" value="undefined" />
				<param name="latestStartTime" value="undefined" />
				<param name="minimalDuration" value="undefined" />
				<param name="openingTime" value="undefined" />
				<param name="priority" value="1.0" />
				<param name="scoringThisActivityAtAll" value="false" />
				<param name="typicalDuration" value="undefined" />
				<param name="typicalDurationScoreComputation" value="relative" />
			</parameterset>
			<parameterset type="modeParams" >
				<!-- [utils] alternative-specific constant.  Normally per trip, but that is probably buggy for multi-leg trips. -->
				<param name="constant" value="0.0" />
				<!-- [unit_of_money/day] Fixed cost of mode, per day. -->
				<param name="dailyMonetaryConstant" value="0.0" />
				<!-- [utils] daily utility constant. default=0 to be backwards compatible -->
				<param name="dailyUtilityConstant" value="0.0" />
				<!-- [utils/m] utility of traveling (e.g. walking or driving) per m, normally negative.  this is on top of the time (dis)utility. -->
				<param name="marginalUtilityOfDistance_util_m" value="0.0" />
				<!-- [utils/hr] additional marginal utility of traveling.  normally negative.  this comes on top of the opportunity cost of time -->
				<param name="marginalUtilityOfTraveling_util_hr" value="-6.0" />
				<param name="mode" value="car" />
				<!-- [unit_of_money/m] conversion of distance into money. Normally negative. -->
				<param name="monetaryDistanceRate" value="0.0" />
			</parameterset>
			<parameterset type="modeParams" >
				<param name="constant" value="0.0" />
				<param name="dailyMonetaryConstant" value="0.0" />
				<param name="dailyUtilityConstant" value="0.0" />
				<param name="marginalUtilityOfDistance_util_m" value="0.0" />
				<param name="marginalUtilityOfTraveling_util_hr" value="-6.0" />
				<param name="mode" value="pt" />
				<param name="monetaryDistanceRate" value="0.0" />
			</parameterset>
			<parameterset type="modeParams" >
				<param name="constant" value="0.0" />
				<param name="dailyMonetaryConstant" value="0.0" />
				<param name="dailyUtilityConstant" value="0.0" />
				<param name="marginalUtilityOfDistance_util_m" value="0.0" />
				<param name="marginalUtilityOfTraveling_util_hr" value="-6.0" />
				<param name="mode" value="walk" />
				<param name="monetaryDistanceRate" value="0.0" />
			</parameterset>
			<parameterset type="modeParams" >
				<param name="constant" value="0.0" />
				<param name="dailyMonetaryConstant" value="0.0" />
				<param name="dailyUtilityConstant" value="0.0" />
				<param name="marginalUtilityOfDistance_util_m" value="0.0" />
				<param name="marginalUtilityOfTraveling_util_hr" value="-6.0" />
				<param name="mode" value="bike" />
				<param name="monetaryDistanceRate" value="0.0" />
			</parameterset>
			<parameterset type="modeParams" >
				<param name="constant" value="0.0" />
				<param name="dailyMonetaryConstant" value="0.0" />
				<param name="dailyUtilityConstant" value="0.0" />
				<param name="marginalUtilityOfDistance_util_m" value="0.0" />
				<param name="marginalUtilityOfTraveling_util_hr" value="-6.0" />
				<param name="mode" value="ride" />
				<param name="monetaryDistanceRate" value="0.0" />
			</parameterset>
			<parameterset type="modeParams" >
				<param name="constant" value="0.0" />
				<param name="dailyMonetaryConstant" value="0.0" />
				<param name="dailyUtilityConstant" value="0.0" />
				<param name="marginalUtilityOfDistance_util_m" value="0.0" />
				<param name="marginalUtilityOfTraveling_util_hr" value="-6.0" />
				<param name="mode" value="other" />
				<param name="monetaryDistanceRate" value="0.0" />
			</parameterset>
			<parameterset type="modeParams" >
				<param name="constant" value="0.0" />
				<param name="dailyMonetaryConstant" value="0.0" />
				<param name="dailyUtilityConstant" value="0.0" />
				<param name="marginalUtilityOfDistance_util_m" value="0.0" />
				<param name="marginalUtilityOfTraveling_util_hr" value="-6.0" />
				<param name="mode" value="bicycle" />
				<param name="monetaryDistanceRate" value="0.0" />
			</parameterset>
		</parameterset>
	</module>
	<module name="plans" >
		<!-- String: minOfDurationAndEndTime tryEndTimeThenDuration endTimeOnly. Anything besides minOfDurationAndEndTime will internally use a different (simpler) version of the TimeAllocationMutator. -->
		<param name="activityDurationInterpretation" value="tryEndTimeThenDuration" />
		<!-- Possible values: reject, useMainModeIdentifier -->
		<param name="handlingOfPlansWithoutRoutingMode" value="reject" />
		<!-- The Coordinates Reference System in which the coordinates are expressed in the input file. At import, the coordinates will be converted to the coordinate system defined in "global", and willbe converted back at export. If not specified, no conversion happens. -->
		<param name="inputCRS" value="null" />
		<param name="inputPersonAttributesFile" value="null" />
		<param name="inputPlansFile" value="plans.xml" />
		<param name="insistingOnUsingDeprecatedPersonAttributeFile" value="false" />
		<!-- Defines how routes are stored in memory. Currently supported: LinkNetworkRoute, CompressedNetworkRoute. -->
		<param name="networkRouteType" value="LinkNetworkRoute" />
		<!-- (not tested) will remove plan attributes that are presumably not used, such as activityStartTime. default=false. Use with Caution! -->
		<param name="removingUnnecessaryPlanAttributes" value="false" />
		<!-- Defines how departure times are interpreted in rerouting applications. If set to 'ignoreDelays', the departure time of a trip when routing along a plan will always be the nominal (plan-based) activity end time. If set to 'shiftActivityEndTimes', routing along a plan will accumulate travel times and shift activity end times if necessary -->
		<param name="tripDurationHandling" value="ignoreDelays" />
	</module>
	<module name="planscalcroute" >
		<!-- Defines how access and egress to main mode is simulated. Either of [none, accessEgressModeToLink, walkConstantTimeToLink, accessEgressModeToLinkPlusTimeConstant], Current default=none which means no access or egress trips are simulated. -->
		<param name="accessEgressType" value="none" />
		<!-- Some typical teleportation routing params are set by default, such as for walk and bike.  Setting this switch to "true" will clear them.  Note that this will also clear settings for helper modes such as for non_network_walk -->
		<param name="clearDefaultTeleportedModeParams" value="false" />
		<!-- All the modes for which the router is supposed to generate network routes (like car) -->
		<param name="networkModes" value="car,bicycle" />
		<!-- strength of the randomness for the utility of money in routing under toll.  Leads to Pareto-optimal route with randomly drawn money-vs-other-attributes tradeoff. Technically the width parameter of a log-normal distribution. 3.0 seems to be a good value.  -->
		<param name="routingRandomness" value="3.0" />
		<parameterset type="teleportedModeParameters" >
			<param name="beelineDistanceFactor" value="1.3" />
			<param name="mode" value="bike" />
			<!-- Free-speed factor for a teleported mode. Travel time = teleportedModeFreespeedFactor * <freespeed car travel time>. Insert a line like this for every such mode. Please do not set teleportedModeFreespeedFactor as well as teleportedModeSpeed for the same mode, but if you do, +teleportedModeFreespeedFactor wins over teleportedModeSpeed. -->
			<param name="teleportedModeFreespeedFactor" value="null" />
			<!-- Speed for a teleported mode. Travel time = (<beeline distance> * beelineDistanceFactor) / teleportedModeSpeed. Insert a line like this for every such mode. -->
			<param name="teleportedModeSpeed" value="4.166666666666667" />
		</parameterset>
		<parameterset type="teleportedModeParameters" >
			<param name="beelineDistanceFactor" value="1.3" />
			<param name="mode" value="walk" />
			<param name="teleportedModeFreespeedFactor" value="null" />
			<param name="teleportedModeSpeed" value="0.8333333333333333" />
		</parameterset>
		<parameterset type="teleportedModeParameters" >
			<param name="beelineDistanceFactor" value="1.3" />
			<param name="mode" value="non_network_walk" />
			<param name="teleportedModeFreespeedFactor" value="null" />
			<param name="teleportedModeSpeed" value="0.8333333333333333" />
		</parameterset>
		<parameterset type="teleportedModeParameters" >
			<param name="beelineDistanceFactor" value="1.3" />
			<param name="mode" value="ride" />
			<param name="teleportedModeFreespeedFactor" value="1.0" />
			<param name="teleportedModeSpeed" value="null" />
		</parameterset>
		<parameterset type="teleportedModeParameters" >
			<param name="beelineDistanceFactor" value="1.3" />
			<param name="mode" value="pt" />
			<param name="teleportedModeFreespeedFactor" value="2.0" />
			<param name="teleportedModeSpeed" value="null" />
		</parameterset>
	</module>
	<module name="ptCounts" >
		<!-- factor by which to re-scale the simulated values.  necessary when simulation runs with something different from 100%.  needs to be adapted manually -->
		<param name="countsScaleFactor" value="1.0" />
		<!-- distance to distanceFilterCenterNode to include counting stations. The unit of distance is the Euclidean distance implied by the coordinate system -->
		<param name="distanceFilter" value="null" />
		<!-- node id for center node of distance filter -->
		<param name="distanceFilterCenterNode" value="null" />
		<!-- input file containing the alighting (getting off) counts for pt -->
		<param name="inputAlightCountsFile" value="null" />
		<!-- input file containing the boarding (getting on) counts for pt -->
		<param name="inputBoardCountsFile" value="null" />
		<!-- input file containing the occupancy counts for pt -->
		<param name="inputOccupancyCountsFile" value="null" />
		<!-- possible values: `html', `kml', `txt', `all' -->
		<param name="outputformat" value="null" />
		<!-- every how many iterations (starting with 0) counts comparisons are generated -->
		<param name="ptCountsInterval" value="10" />
	</module>
	<module name="qsim" >
		<param name="endTime" value="undefined" />
		<!-- If set to withLinkAttributes snapshots will only be generated for links which include generateSnapshotForLink as attribute key. Default is no filtering. -->
		<param name="filterSnapshots" value="no" />
		<param name="flowCapacityFactor" value="1.0" />
		<!-- decides if waiting vehicles enter the network after or before the already driving vehicles were moved. Default: false -->
		<param name="insertingWaitingVehiclesBeforeDrivingVehicles" value="true" />
		<!-- If link dynamics is set as SeepageQ, set to false if all seep modes should perform seepage. Default is true (better option). -->
		<param name="isRestrictingSeepage" value="true" />
		<!-- If link dynamics is set as SeepageQ, set to true if seep mode do not consumes any space on the link. Default is false. -->
		<param name="isSeepModeStorageFree" value="false" />
		<!-- default: FIFO; options: FIFO PassingQ SeepageQ -->
		<param name="linkDynamics" value="PassingQ" />
		<!-- The (initial) width of the links of the network. Use positive floating point values. This is used only for visualisation. -->
		<param name="linkWidth" value="30.0" />
		<!-- [comma-separated list] Defines which modes are congested modes. Technically, these are the modes that the departure handler of the netsimengine handles.  Effective cell size, effective lane width, flow capacity factor, and storage capacity factor need to be set with diligence.  Need to be vehicular modes to make sense. -->
		<param name="mainMode" value="bicycle,car" />
		<!-- Shortens a link in the visualization, i.e. its start and end point are moved into towards the center. Does not affect traffic flow.  -->
		<param name="nodeOffset" value="0.0" />
		<!-- Number of threads used for the QSim.  Note that this setting is independent from the "global" threads setting.  In contrast to earlier versions, the non-parallel special version is no longer there. -->
		<param name="numberOfThreads" value="1" />
		<!-- Boolean. `true': stuck vehicles are removed, aborting the plan; `false': stuck vehicles are forced into the next link. `false' is probably the better choice. -->
		<param name="removeStuckVehicles" value="false" />
		<!-- If link dynamics is set as SeepageQ, set a seep mode. Default is bike. -->
		<param name="seepMode" value="bike" />
		<!-- Possible values: minOfEndtimeAndMobsimFinished, onlyUseEndtime -->
		<param name="simEndtimeInterpretation" value="null" />
		<!-- Options: maxOfStarttimeAndEarliestActivityEnd onlyUseStarttime  -->
		<param name="simStarttimeInterpretation" value="maxOfStarttimeAndEarliestActivityEnd" />
		<!-- snapshotStyle. One of: equiDist queue withHoles withHolesAndShowHoles kinematicWaves  -->
		<param name="snapshotStyle" value="equiDist" />
		<param name="snapshotperiod" value="00:00:00" />
		<param name="startTime" value="undefined" />
		<param name="storageCapacityFactor" value="1.0" />
		<!-- time in seconds.  Time after which the frontmost vehicle on a link is called `stuck' if it does not move. -->
		<param name="stuckTime" value="10.0" />
		<param name="timeStepSize" value="00:00:01" />
		<!-- options: queue withHoles kinematicWaves  -->
		<param name="trafficDynamics" value="kinematicWaves" />
		<!-- Set this parameter to true if lanes should be used, false if not. -->
		<param name="useLanes" value="false" />
		<!-- If a route does not reference a vehicle, agents will use the vehicle with the same id as their own. -->
		<param name="usePersonIdForMissingVehicleId" value="true" />
		<!-- If false, the qsim accumulates fractional flows up to one flow unit in every time step.  If true, flows are updated only if an agent wants to enter the link or an agent is added to buffer. Default is true. -->
		<param name="usingFastCapacityUpdate" value="true" />
		<!-- Defines what happens if an agent wants to depart, but the specified vehicle is not available. One of: teleport wait exception  -->
		<param name="vehicleBehavior" value="teleport" />
		<!-- If vehicles should all be the same default vehicle, or come from the vehicles file, or something else.  Possible values:  defaultVehicle modeVehicleTypesFromVehiclesData fromVehiclesData -->
		<param name="vehiclesSource" value="modeVehicleTypesFromVehiclesData" />
	</module>
	<module name="strategy" >
		<!-- the external executable will be called with a config file as argument.  This is the pathname to a possible skeleton config, to which additional information will be added.  Can be null. -->
		<param name="ExternalExeConfigTemplate" value="null" />
		<!-- time out value (in seconds) after which matsim will consider the external strategy as failed -->
		<param name="ExternalExeTimeOut" value="3600" />
		<!-- root directory for temporary files generated by the external executable. Provided as a service; I don't think this is used by MATSim. -->
		<param name="ExternalExeTmpFileRootDir" value="null" />
		<!-- fraction of iterations where innovative strategies are switched off.  Something like 0.8 should be good.  E.g. if you run from iteration 400 to iteration 500, innovation is switched off at iteration 480 -->
		<param name="fractionOfIterationsToDisableInnovation" value="Infinity" />
		<!-- maximum number of plans per agent.  ``0'' means ``infinity''.  Currently (2010), ``5'' is a good number -->
		<param name="maxAgentPlanMemorySize" value="5" />
		<!-- strategyName of PlanSelector for plans removal.  Possible defaults: WorstPlanSelector SelectRandom SelectExpBetaForRemoval ChangeExpBetaForRemoval PathSizeLogitSelectorForRemoval . The current default, WorstPlanSelector is not a good choice from a discrete choice theoretical perspective. Alternatives, however, have not been systematically tested. kai, feb'12 -->
		<param name="planSelectorForRemoval" value="WorstPlanSelector" />
		<parameterset type="strategysettings" >
			<!-- iteration after which strategy will be disabled.  most useful for ``innovative'' strategies (new routes, new times, ...). Normally, better use fractionOfIterationsToDisableInnovation -->
			<param name="disableAfterIteration" value="-1" />
			<!-- path to external executable (if applicable) -->
			<param name="executionPath" value="null" />
			<!-- strategyName of strategy.  Possible default names: SelectRandom BestScore KeepLastSelected ChangeExpBeta SelectExpBeta SelectPathSizeLogit      (selectors), ReRouteTimeAllocationMutatorTimeAllocationMutator_ReRouteChangeSingleTripModeChangeTripModeSubtourModeChoice (innovative strategies). -->
			<param name="strategyName" value="BestScore" />
			<!-- subpopulation to which the strategy applies. "null" refers to the default population, that is, the set of persons for which no explicit subpopulation is defined (ie no subpopulation attribute) -->
			<param name="subpopulation" value="null" />
			<!-- weight of a strategy: for each agent, a strategy will be selected with a probability proportional to its weight -->
			<param name="weight" value="0.9" />
		</parameterset>
		<parameterset type="strategysettings" >
			<param name="disableAfterIteration" value="-1" />
			<param name="executionPath" value="null" />
			<param name="strategyName" value="ReRoute" />
			<param name="subpopulation" value="null" />
			<param name="weight" value="0.1" />
		</parameterset>
	</module>
	<module name="subtourModeChoice" >
		<!-- Only for backwards compatibility.  Defines if only trips from modes list should change mode, or all trips.  Options: fromAllModesToSpecifiedModes fromSpecifiedModesToSpecifiedModes  -->
		<param name="behavior" value="fromSpecifiedModesToSpecifiedModes" />
		<!-- Defines the chain-based modes, seperated by commas -->
		<param name="chainBasedModes" value="car,bike" />
		<!-- Defines whether car availability must be considered or not. A agent has no car only if it has no license, or never access to a car -->
		<param name="considerCarAvailability" value="false" />
		<!-- Defines all the modes available, including chain-based modes, seperated by commas -->
		<param name="modes" value="car,pt,bike,walk" />
	</module>
	<module name="transit" >
		<!-- The Coordinates Reference System in which the coordinates are expressed in the input file. At import, the coordinates will be converted to the coordinate system defined in "global", and willbe converted back at export. If not specified, no conversion happens. -->
		<param name="inputScheduleCRS" value="null" />
		<param name="insistingOnUsingDeprecatedAttributeFiles" value="false" />
		<!-- The type of transit routing algorithm used, may have the values: [DijkstraBased, SwissRailRaptor] -->
		<param name="routingAlgorithmType" value="SwissRailRaptor" />
		<!-- Optional input file containing additional attributes for transit lines, stored as ObjectAttributes. -->
		<param name="transitLinesAttributesFile" value="null" />
		<!-- Comma-separated list of transportation modes that are handled as transit. Defaults to 'pt'. -->
		<param name="transitModes" value="pt" />
		<!-- Input file containing the transit schedule to be simulated. -->
		<param name="transitScheduleFile" value="null" />
		<!-- Optional input file containing additional attributes for transit stop facilities, stored as ObjectAttributes. -->
		<param name="transitStopsAttributesFile" value="null" />
		<!-- Set this parameter to true if transit should be simulated, false if not. -->
		<param name="useTransit" value="false" />
		<param name="usingTransitInMobsim" value="true" />
		<!-- Input file containing the vehicles used by the departures in the transit schedule. -->
		<param name="vehiclesFile" value="null" />
	</module>
	<module name="transitRouter" >
		<!-- additional time the router allocates when a line switch happens. Can be interpreted as a 'safety' time that agents need to safely transfer from one line to another -->
		<param name="additionalTransferTime" value="0.0" />
		<!-- Factor with which direct walk generalized cost is multiplied before it is compared to the pt generalized cost.  Set to a very high value to reduce direct walk results. -->
		<param name="directWalkFactor" value="1.0" />
		<!-- step size to increase searchRadius if no stops are found -->
		<param name="extensionRadius" value="200.0" />
		<!-- maximum beeline distance between stops that agents could transfer to by walking -->
		<param name="maxBeelineWalkConnectionDistance" value="100.0" />
		<!-- the radius in which stop locations are searched, given a start or target coordinate -->
		<param name="searchRadius" value="1000.0" />
	</module>
	<module name="travelTimeCalculator" >
		<!-- (only for backwards compatibility; only used if separateModes==false && + filterModes==true)  Transport modes that will be respected by the travel time collector. 'car' is default which includes also buses from the pt simulation module. -->
		<param name="analyzedModes" value="car,bicycle" />
		<param name="calculateLinkToLinkTravelTimes" value="false" />
		<param name="calculateLinkTravelTimes" value="true" />
		<!-- (only for backwards compatiblity; only used if separateModes==false)  Only modes included in analyzedModes are included. -->
		<param name="filterModes" value="false" />
		<!-- The lenght (in sec) of the time period that is splited into time bins; an additional time bin is created to aggregate all travel times collected after maxTime -->
		<param name="maxTime" value="108000" />
		<!-- (only for backwards compatibility) If false, link travel times are measured and aggregated over all vehicles using the link. -->
		<param name="separateModes" value="true" />
		<!-- How to deal with congested time bins that have no link entry events. `optimistic' assumes free speed (too optimistic); 'experimental_LastMile' is experimental and probably too pessimistic. -->
		<param name="travelTimeAggregator" value="optimistic" />
		<!-- The size of the time bin (in sec) into which the link travel times are aggregated for the router -->
		<param name="travelTimeBinSize" value="900" />
		<!-- possible values: TravelTimeCalculatorArray TravelTimeCalculatorHashMap  -->
		<param name="travelTimeCalculator" value="TravelTimeCalculatorArray" />
		<!-- How to deal with link entry times at different positions during the time bin. Currently supported: average, linearinterpolation -->
		<param name="travelTimeGetter" value="average" />
	</module>
	<module name="vehicles" >
		<param name="vehiclesFile" value="mode-vehicles.xml" />
	</module>
	<module name="vspExperimental" >
		<!-- (do not use except of you have to) There was a problem with pt interaction scoring.  Some people solved it by overwriting the parameters of the pt interaction activity type.  Doing this now throws an Exception.  If you still insist on doing this, set the following to true. -->
		<param name="isAbleToOverwritePtInteractionParams" value="false" />
		<param name="isGeneratingBoardingDeniedEvent" value="false" />
		<!-- if an approximation of the opportunity cost of time is included into the radius calculation for location choice.`true' will be faster, but it is an approximation.  Default is `true'; `false' is available for backwards compatibility. -->
		<param name="isUsingOpportunityCostOfTimeForLocationChoice" value="true" />
		<param name="logitScaleParamForPlansRemoval" value="1.0" />
		<!-- Options: | ignore | info | warn | abort | .  When violating VSP defaults, this results in nothing, logfile infos, logfile warnings, or aborts.  Members of VSP should use `abort' or talk to kai. -->
		<param name="vspDefaultsCheckingLevel" value="ignore" />
		<!-- if true then writes output_events in output directory.  default is `false'. Will only work when lastIteration is multiple of events writing interval -->
		<param name="writingOutputEvents" value="true" />
	</module>

</config>

2023-01-15T00:14:38,867  INFO ControlerUtils:84 Complete config dump done.
2023-01-15T00:14:38,870  INFO ControlerUtils:85 Checking consistency of config...
2023-01-15T00:14:38,871  INFO VspConfigConsistencyCheckerImpl:63 NOT running vsp config consistency check because vsp defaults checking level is set to IGNORE
2023-01-15T00:14:38,880  INFO ControlerUtils:87 Checking consistency of config done.
2023-01-15T00:14:38,922  INFO Counter:69 [VehiclesImpl] added vehicle # 1
2023-01-15T00:14:38,923  WARN PrepareForSimImpl:220 'usePersonIdForMissingVehicleId' is deprecated. It will be removed soon.
2023-01-15T00:14:38,926  INFO Counter:69 [VehiclesImpl] added vehicle # 2
2023-01-15T00:14:38,931  INFO Counter:69 [VehiclesImpl] added vehicle # 4
2023-01-15T00:14:38,934  INFO Counter:69 [VehiclesImpl] added vehicle # 8
2023-01-15T00:14:38,938  INFO Counter:69 [VehiclesImpl] added vehicle # 16
2023-01-15T00:14:38,942  INFO Counter:69 [VehiclesImpl] added vehicle # 32
2023-01-15T00:14:38,945  INFO Counter:69 [VehiclesImpl] added vehicle # 64
2023-01-15T00:14:38,949  INFO Counter:69 [VehiclesImpl] added vehicle # 128
2023-01-15T00:14:38,955  INFO Counter:69 [VehiclesImpl] added vehicle # 256
2023-01-15T00:14:38,968  INFO Counter:69 [VehiclesImpl] added vehicle # 512
2023-01-15T00:14:39,038  INFO PreProcessDijkstra:118 nodes in dead ends: 45 (total nodes: 169). Done in 19 ms
2023-01-15T00:14:39,039  INFO PreProcessLandmarks:112 Putting landmarks on network...
2023-01-15T00:14:39,044  INFO LandmarkerPieSlices:96 Filling sectors...
2023-01-15T00:14:39,050  INFO LandmarkerPieSlices:107 Refining landmarks...
2023-01-15T00:14:39,053  INFO LandmarkerPieSlices:109 done
2023-01-15T00:14:39,055  INFO PreProcessLandmarks:115 done in 13 ms
2023-01-15T00:14:39,055  INFO PreProcessLandmarks:117 Initializing landmarks data
2023-01-15T00:14:39,066  INFO PreProcessLandmarks:129 Calculating distance from each node to each of the 16 landmarks using 2 threads...
2023-01-15T00:14:39,069  INFO PreProcessLandmarks:139 wait for landmarks Calculator to finish...
2023-01-15T00:14:39,083  INFO PreProcessLandmarks:163 done in 16 ms
2023-01-15T00:14:39,098  INFO NetworkImpl:163  node # 1
2023-01-15T00:14:39,099  INFO NetworkImpl:163  node # 4
2023-01-15T00:14:39,100  INFO NetworkImpl:163  node # 16
2023-01-15T00:14:39,108  INFO NetworkImpl:163  node # 64
2023-01-15T00:14:39,114  INFO NetworkImpl:159  link # 1
2023-01-15T00:14:39,115  INFO NetworkImpl:159  link # 4
2023-01-15T00:14:39,118  INFO NetworkImpl:159  link # 16
2023-01-15T00:14:39,125  INFO NetworkImpl:159  link # 64
2023-01-15T00:14:39,134  INFO NetworkImpl:159  link # 256
2023-01-15T00:14:39,140  WARN RandomizingTimeDistanceTravelDisutilityFactory:112 There will be no routing randomness. The randomization of the travel disutility requires the monetary distance rate to be different than zero. Continuing anyway.
2023-01-15T00:14:39,141  WARN RandomizingTimeDistanceTravelDisutilityFactory:117 There will be no routing randomness. The randomization of the travel disutility requires the travel time cost rate to be different than zero. Continuing anyway.
2023-01-15T00:14:39,159  INFO RandomizingTimeDistanceTravelDisutilityFactory:85  sigma: 3.0; resulting normalization: 0.011108996538242306
2023-01-15T00:14:39,166  INFO PreProcessDijkstra:118 nodes in dead ends: 45 (total nodes: 169). Done in 3 ms
2023-01-15T00:14:39,168  INFO PreProcessLandmarks:112 Putting landmarks on network...
2023-01-15T00:14:39,170  INFO LandmarkerPieSlices:96 Filling sectors...
2023-01-15T00:14:39,173  INFO LandmarkerPieSlices:107 Refining landmarks...
2023-01-15T00:14:39,173  INFO LandmarkerPieSlices:109 done
2023-01-15T00:14:39,174  INFO PreProcessLandmarks:115 done in 4 ms
2023-01-15T00:14:39,175  INFO PreProcessLandmarks:117 Initializing landmarks data
2023-01-15T00:14:39,176  INFO PreProcessLandmarks:129 Calculating distance from each node to each of the 16 landmarks using 2 threads...
2023-01-15T00:14:39,182  INFO PreProcessLandmarks:139 wait for landmarks Calculator to finish...
2023-01-15T00:14:39,192  INFO PreProcessLandmarks:163 done in 12 ms
2023-01-15T00:14:39,195  INFO NetworkImpl:163  node # 1
2023-01-15T00:14:39,196  INFO NetworkImpl:163  node # 4
2023-01-15T00:14:39,202  INFO NetworkImpl:163  node # 16
2023-01-15T00:14:39,203  INFO NetworkImpl:163  node # 64
2023-01-15T00:14:39,203  INFO NetworkImpl:159  link # 1
2023-01-15T00:14:39,204  INFO NetworkImpl:159  link # 4
2023-01-15T00:14:39,205  INFO NetworkImpl:159  link # 16
2023-01-15T00:14:39,206  INFO NetworkImpl:159  link # 64
2023-01-15T00:14:39,211  INFO NetworkImpl:159  link # 256
2023-01-15T00:14:39,214  INFO RandomizingTimeDistanceTravelDisutilityFactory:85  sigma: 3.0; resulting normalization: 0.011108996538242306
2023-01-15T00:14:39,217  INFO PreProcessDijkstra:118 nodes in dead ends: 45 (total nodes: 169). Done in 1 ms
2023-01-15T00:14:39,218  INFO PreProcessLandmarks:112 Putting landmarks on network...
2023-01-15T00:14:39,219  INFO LandmarkerPieSlices:96 Filling sectors...
2023-01-15T00:14:39,220  INFO LandmarkerPieSlices:107 Refining landmarks...
2023-01-15T00:14:39,220  INFO LandmarkerPieSlices:109 done
2023-01-15T00:14:39,221  INFO PreProcessLandmarks:115 done in 2 ms
2023-01-15T00:14:39,224  INFO PreProcessLandmarks:117 Initializing landmarks data
2023-01-15T00:14:39,230  INFO PreProcessLandmarks:129 Calculating distance from each node to each of the 16 landmarks using 2 threads...
2023-01-15T00:14:39,231  INFO PreProcessLandmarks:139 wait for landmarks Calculator to finish...
2023-01-15T00:14:39,240  INFO PreProcessLandmarks:163 done in 10 ms
2023-01-15T00:14:39,247  INFO RandomizingTimeDistanceTravelDisutilityFactory:85  sigma: 3.0; resulting normalization: 0.011108996538242306
2023-01-15T00:14:39,251  INFO RandomizingTimeDistanceTravelDisutilityFactory:85  sigma: 3.0; resulting normalization: 0.011108996538242306
2023-01-15T00:14:39,274  INFO Counter:69 [PersonPrepareForSim] handled person # 1
2023-01-15T00:14:39,274  INFO Counter:69 [PersonPrepareForSim] handled person # 2
2023-01-15T00:14:39,279  INFO Counter:69 [PersonPrepareForSim] handled person # 4
2023-01-15T00:14:39,284  INFO Counter:69 [PersonPrepareForSim] handled person # 8
2023-01-15T00:14:39,290  INFO Counter:69 [PersonPrepareForSim] handled person # 16
2023-01-15T00:14:39,298  INFO Counter:69 [PersonPrepareForSim] handled person # 32
2023-01-15T00:14:39,319  INFO Counter:69 [PersonPrepareForSim] handled person # 64
2023-01-15T00:14:39,339  INFO Counter:69 [PersonPrepareForSim] handled person # 128
2023-01-15T00:14:39,375  INFO Counter:69 [PersonPrepareForSim] handled person # 256
2023-01-15T00:14:39,420  INFO Counter:74 [PersonPrepareForSim] handled person # 500
2023-01-15T00:14:39,422  INFO AbstractController:133 ###################################################
2023-01-15T00:14:39,423  INFO AbstractController:134 ### ITERATION 0 BEGINS
2023-01-15T00:14:39,427  INFO ControlerListenerManagerImpl:145 calling notifyIterationStarts on org.matsim.analysis.LegHistogramListener
2023-01-15T00:14:39,428  INFO ControlerListenerManagerImpl:145 calling notifyIterationStarts on org.matsim.analysis.LinkStatsControlerListener
2023-01-15T00:14:39,429  INFO ControlerListenerManagerImpl:145 calling notifyIterationStarts on org.matsim.core.replanning.ReplanningContextImpl
2023-01-15T00:14:39,430  INFO ControlerListenerManagerImpl:145 calling notifyIterationStarts on org.matsim.core.scoring.ScoringFunctionsForPopulation$$Lambda$212/0x0000000800f1cc20
2023-01-15T00:14:39,536  INFO ControlerListenerManagerImpl:145 calling notifyIterationStarts on org.matsim.core.scoring.ExperiencedPlansServiceImpl$1
2023-01-15T00:14:39,539  INFO ControlerListenerManagerImpl:148 [it.0] all ControlerIterationStartsListeners called.
2023-01-15T00:14:39,543  INFO ControlerListenerManagerImpl:224 calling notifyBeforeMobsim on org.matsim.core.controler.corelisteners.EventsHandlingImpl
2023-01-15T00:14:39,544  INFO EventsManagerImpl:190 resetting Event-Handlers
2023-01-15T00:14:39,545  INFO EventsManagerImpl:197   org.matsim.core.trafficmonitoring.TravelTimeCalculator
2023-01-15T00:14:39,546  INFO EventsManagerImpl:197   org.matsim.core.trafficmonitoring.TravelTimeCalculator
2023-01-15T00:14:39,550  INFO EventsManagerImpl:197   org.matsim.analysis.VolumesAnalyzer
2023-01-15T00:14:39,550  INFO EventsManagerImpl:197   org.matsim.core.scoring.ScoringFunctionsForPopulation
2023-01-15T00:14:39,551  INFO EventsManagerImpl:197   org.matsim.analysis.LegHistogram
2023-01-15T00:14:39,552  INFO EventsManagerImpl:197   org.matsim.analysis.CalcLegTimes
2023-01-15T00:14:39,558  INFO EventsManagerImpl:160 adding Event-Handler: org.matsim.core.events.algorithms.EventWriterXML
2023-01-15T00:14:39,559  INFO EventsManagerImpl:166   org.matsim.core.events.algorithms.EventWriter
2023-01-15T00:14:39,560  INFO EventsManagerImpl:166   org.matsim.core.events.handler.BasicEventHandler
2023-01-15T00:14:39,563  INFO EventsManagerImpl:227     > org.matsim.api.core.v01.events.Event
2023-01-15T00:14:39,564  INFO EventsManagerImpl:176 
2023-01-15T00:14:39,564  INFO EventsManagerImpl:160 adding Event-Handler: org.matsim.core.events.algorithms.EventWriterXML
2023-01-15T00:14:39,565  INFO EventsManagerImpl:166   org.matsim.core.events.algorithms.EventWriter
2023-01-15T00:14:39,565  INFO EventsManagerImpl:166   org.matsim.core.events.handler.BasicEventHandler
2023-01-15T00:14:39,566  INFO EventsManagerImpl:227     > org.matsim.api.core.v01.events.Event
2023-01-15T00:14:39,566  INFO EventsManagerImpl:176 
2023-01-15T00:14:39,567  INFO ControlerListenerManagerImpl:224 calling notifyBeforeMobsim on org.matsim.core.controler.corelisteners.PlansDumpingImpl
2023-01-15T00:14:39,567  INFO PlansDumpingImpl:76 dumping plans...
2023-01-15T00:14:39,589  INFO Counter:69 [PopulationWriter] dumped person # 1
2023-01-15T00:14:39,590  INFO Counter:69 [PopulationWriter] dumped person # 2
2023-01-15T00:14:39,591  INFO Counter:69 [PopulationWriter] dumped person # 4
2023-01-15T00:14:39,594  INFO Counter:69 [PopulationWriter] dumped person # 8
2023-01-15T00:14:39,596  INFO Counter:69 [PopulationWriter] dumped person # 16
2023-01-15T00:14:39,601  INFO Counter:69 [PopulationWriter] dumped person # 32
2023-01-15T00:14:39,615  INFO Counter:69 [PopulationWriter] dumped person # 64
2023-01-15T00:14:39,625  INFO Counter:69 [PopulationWriter] dumped person # 128
2023-01-15T00:14:39,645  INFO Counter:69 [PopulationWriter] dumped person # 256
2023-01-15T00:14:39,672  INFO PopulationWriter:144 Population written to: ./output/ITERS/it.0/0.plans.xml.gz
2023-01-15T00:14:39,676  INFO Counter:74 [PopulationWriter] dumped person # 500
2023-01-15T00:14:39,676  INFO PlansDumpingImpl:93 finished plans dump.
2023-01-15T00:14:39,678  INFO ControlerListenerManagerImpl:229 calling notifyBeforeMobsim on org.matsim.core.population.VspPlansCleaner
2023-01-15T00:14:39,684  INFO ControlerListenerManagerImpl:232 [it.0] all ControlerBeforeMobsimListeners called.
2023-01-15T00:14:39,685  INFO PrepareForMobsimImpl:86 Network seems to be multimodal. Create car-only network which is handed over to PersonPrepareForSim.
2023-01-15T00:14:39,685  INFO NetworkImpl:163  node # 1
2023-01-15T00:14:39,686  INFO NetworkImpl:163  node # 4
2023-01-15T00:14:39,686  INFO NetworkImpl:163  node # 16
2023-01-15T00:14:39,687  INFO NetworkImpl:163  node # 64
2023-01-15T00:14:39,688  INFO NetworkImpl:159  link # 1
2023-01-15T00:14:39,691  INFO NetworkImpl:159  link # 4
2023-01-15T00:14:39,691  INFO NetworkImpl:159  link # 16
2023-01-15T00:14:39,697  INFO NetworkImpl:159  link # 64
2023-01-15T00:14:39,698  INFO NetworkImpl:159  link # 256
2023-01-15T00:14:39,700  INFO RandomizingTimeDistanceTravelDisutilityFactory:85  sigma: 3.0; resulting normalization: 0.011108996538242306
2023-01-15T00:14:39,701  INFO RandomizingTimeDistanceTravelDisutilityFactory:85  sigma: 3.0; resulting normalization: 0.011108996538242306
2023-01-15T00:14:39,702  INFO RandomizingTimeDistanceTravelDisutilityFactory:85  sigma: 3.0; resulting normalization: 0.011108996538242306
2023-01-15T00:14:39,702  INFO RandomizingTimeDistanceTravelDisutilityFactory:85  sigma: 3.0; resulting normalization: 0.011108996538242306
2023-01-15T00:14:39,707  INFO Counter:69 [PersonPrepareForSim] handled person # 1
2023-01-15T00:14:39,707  INFO Counter:69 [PersonPrepareForSim] handled person # 2
2023-01-15T00:14:39,709  INFO Counter:69 [PersonPrepareForSim] handled person # 4
2023-01-15T00:14:39,709  INFO Counter:69 [PersonPrepareForSim] handled person # 8
2023-01-15T00:14:39,710  INFO Counter:69 [PersonPrepareForSim] handled person # 16
2023-01-15T00:14:39,711  INFO Counter:69 [PersonPrepareForSim] handled person # 32
2023-01-15T00:14:39,712  INFO Counter:69 [PersonPrepareForSim] handled person # 64
2023-01-15T00:14:39,714  INFO Counter:69 [PersonPrepareForSim] handled person # 128
2023-01-15T00:14:39,717  INFO Counter:69 [PersonPrepareForSim] handled person # 256
2023-01-15T00:14:39,719  INFO Counter:74 [PersonPrepareForSim] handled person # 500
2023-01-15T00:14:39,802  INFO MobsimListenerManager:49 calling addQueueSimulationListener
2023-01-15T00:14:39,803  INFO MobsimListenerManager:53   assigned class org.matsim.core.mobsim.framework.listeners.MobsimListener to interface org.matsim.core.mobsim.framework.listeners.MobsimInitializedListener
2023-01-15T00:14:39,804  INFO MobsimListenerManager:53   assigned class org.matsim.core.mobsim.framework.listeners.MobsimListener to interface org.matsim.core.mobsim.framework.listeners.MobsimBeforeCleanupListener
2023-01-15T00:14:39,808  INFO MobsimListenerManager:53   assigned class org.matsim.core.mobsim.framework.listeners.MobsimListener to interface org.matsim.vis.snapshotwriters.SnapshotWriterManager
2023-01-15T00:14:39,809  INFO MobsimListenerManager:53   assigned class org.matsim.core.mobsim.framework.listeners.MobsimListener to interface org.matsim.core.mobsim.framework.listeners.MobsimListener
2023-01-15T00:14:39,809  INFO MobsimListenerManager:53   assigned class org.matsim.core.mobsim.framework.listeners.MobsimListener to interface org.matsim.core.mobsim.framework.listeners.MobsimAfterSimStepListener
2023-01-15T00:14:39,852  WARN QueueWithBuffer:421 max flow from fdiag < flow cap in network file; linkId=10; network file flow cap/h=2000.0; max flow from fdiag/h=1538.4615384615383
2023-01-15T00:14:39,853  WARN QueueWithBuffer:425 number of lanes from fdiag > number of lanes in network file; linkId=10; number of lanes in network file=1.0; number of lanes from fdiag=1.3
2023-01-15T00:14:39,857  WARN QueueWithBuffer:435 The flow capacity will be reduced. See link attribute 'maxInflowUsedInQsim' written into the output network.
2023-01-15T00:14:39,858  WARN QueueWithBuffer:538 storage capacity not sufficient for holes; increasing from 1.5449837550834666 to 2.0084788816085064
2023-01-15T00:14:39,859  WARN QueueWithBuffer:421 max flow from fdiag < flow cap in network file; linkId=100; network file flow cap/h=4000.0; max flow from fdiag/h=3294.1176470588234
2023-01-15T00:14:39,859  WARN QueueWithBuffer:425 number of lanes from fdiag > number of lanes in network file; linkId=100; number of lanes in network file=2.0; number of lanes from fdiag=2.428571428571429
2023-01-15T00:14:39,860  WARN QueueWithBuffer:435 The flow capacity will be reduced. See link attribute 'maxInflowUsedInQsim' written into the output network.
2023-01-15T00:14:39,862  WARN QueueWithBuffer:538 storage capacity not sufficient for holes; increasing from 10.993638613132713 to 13.349418315946869
2023-01-15T00:14:39,864  WARN QueueWithBuffer:421 max flow from fdiag < flow cap in network file; linkId=105; network file flow cap/h=4000.0; max flow from fdiag/h=2909.0909090909095
2023-01-15T00:14:39,865  WARN QueueWithBuffer:425 number of lanes from fdiag > number of lanes in network file; linkId=105; number of lanes in network file=2.0; number of lanes from fdiag=2.75
2023-01-15T00:14:39,865  WARN QueueWithBuffer:435 The flow capacity will be reduced. See link attribute 'maxInflowUsedInQsim' written into the output network.
2023-01-15T00:14:39,866  WARN QueueWithBuffer:538 storage capacity not sufficient for holes; increasing from 13.464822724856838 to 18.51413124667815
2023-01-15T00:14:39,866  WARN QueueWithBuffer:421 max flow from fdiag < flow cap in network file; linkId=108; network file flow cap/h=2000.0; max flow from fdiag/h=1600.0
2023-01-15T00:14:39,867  WARN QueueWithBuffer:425 number of lanes from fdiag > number of lanes in network file; linkId=108; number of lanes in network file=1.0; number of lanes from fdiag=1.25
2023-01-15T00:14:39,867  WARN QueueWithBuffer:435 The flow capacity will be reduced. See link attribute 'maxInflowUsedInQsim' written into the output network.
2023-01-15T00:14:39,868  WARN QueueWithBuffer:538 storage capacity not sufficient for holes; increasing from 8.15351281988767 to 10.191891024859586
2023-01-15T00:14:39,873  WARN QueueWithBuffer:421 max flow from fdiag < flow cap in network file; linkId=109; network file flow cap/h=2000.0; max flow from fdiag/h=1600.0
2023-01-15T00:14:39,874  WARN QueueWithBuffer:425 number of lanes from fdiag > number of lanes in network file; linkId=109; number of lanes in network file=1.0; number of lanes from fdiag=1.25
2023-01-15T00:14:39,876  WARN QueueWithBuffer:435 The flow capacity will be reduced. See link attribute 'maxInflowUsedInQsim' written into the output network.
2023-01-15T00:14:39,877  WARN QueueWithBuffer:538 storage capacity not sufficient for holes; increasing from 8.15351281988767 to 10.191891024859586
2023-01-15T00:14:39,878  WARN QueueWithBuffer:421 max flow from fdiag < flow cap in network file; linkId=11; network file flow cap/h=2000.0; max flow from fdiag/h=1538.4615384615383
2023-01-15T00:14:39,881  WARN QueueWithBuffer:425 number of lanes from fdiag > number of lanes in network file; linkId=11; number of lanes in network file=1.0; number of lanes from fdiag=1.3
2023-01-15T00:14:39,882  WARN QueueWithBuffer:435 The flow capacity will be reduced. See link attribute 'maxInflowUsedInQsim' written into the output network.
2023-01-15T00:14:39,883  WARN QueueWithBuffer:538 storage capacity not sufficient for holes; increasing from 11.501739443810123 to 14.95226127695316
2023-01-15T00:14:39,886  WARN QueueWithBuffer:421 max flow from fdiag < flow cap in network file; linkId=110; network file flow cap/h=2000.0; max flow from fdiag/h=1600.0
2023-01-15T00:14:39,887  WARN QueueWithBuffer:425 number of lanes from fdiag > number of lanes in network file; linkId=110; number of lanes in network file=1.0; number of lanes from fdiag=1.25
2023-01-15T00:14:39,888  WARN QueueWithBuffer:435 The flow capacity will be reduced. See link attribute 'maxInflowUsedInQsim' written into the output network.
2023-01-15T00:14:39,889  WARN QueueWithBuffer:538 storage capacity not sufficient for holes; increasing from 25.853470293639102 to 32.31683786704888
2023-01-15T00:14:39,889  WARN QueueWithBuffer:421 max flow from fdiag < flow cap in network file; linkId=111; network file flow cap/h=2000.0; max flow from fdiag/h=1600.0
2023-01-15T00:14:39,890  WARN QueueWithBuffer:425 number of lanes from fdiag > number of lanes in network file; linkId=111; number of lanes in network file=1.0; number of lanes from fdiag=1.25
2023-01-15T00:14:39,890  WARN QueueWithBuffer:435 The flow capacity will be reduced. See link attribute 'maxInflowUsedInQsim' written into the output network.
2023-01-15T00:14:39,891  WARN QueueWithBuffer:538 storage capacity not sufficient for holes; increasing from 25.853470293639102 to 32.31683786704888
2023-01-15T00:14:39,891  WARN QueueWithBuffer:421 max flow from fdiag < flow cap in network file; linkId=112; network file flow cap/h=2000.0; max flow from fdiag/h=1600.0
2023-01-15T00:14:39,892  WARN QueueWithBuffer:425 number of lanes from fdiag > number of lanes in network file; linkId=112; number of lanes in network file=1.0; number of lanes from fdiag=1.25
2023-01-15T00:14:39,892  WARN QueueWithBuffer:435 The flow capacity will be reduced. See link attribute 'maxInflowUsedInQsim' written into the output network.
2023-01-15T00:14:39,893  WARN QueueWithBuffer:538 storage capacity not sufficient for holes; increasing from 5.6202806121003155 to 7.025350765125395
2023-01-15T00:14:39,894  WARN QueueWithBuffer:421 max flow from fdiag < flow cap in network file; linkId=113; network file flow cap/h=2000.0; max flow from fdiag/h=1600.0
2023-01-15T00:14:39,897  WARN QueueWithBuffer:425 number of lanes from fdiag > number of lanes in network file; linkId=113; number of lanes in network file=1.0; number of lanes from fdiag=1.25
2023-01-15T00:14:39,897  WARN QueueWithBuffer:430  Future occurences of this logging statement are suppressed.
2023-01-15T00:14:39,898  WARN QueueWithBuffer:538 storage capacity not sufficient for holes; increasing from 5.6202806121003155 to 7.025350765125395
2023-01-15T00:14:39,904  WARN QueueWithBuffer:538 storage capacity not sufficient for holes; increasing from 69.29162158782245 to 86.61452698477807
2023-01-15T00:14:39,922  INFO QSimProvider:122 Added MobsimEngine class org.matsim.core.mobsim.qsim.ActivityEngineDefaultImpl
2023-01-15T00:14:39,922  INFO QSimProvider:128 Added Activityhandler class org.matsim.core.mobsim.qsim.ActivityEngineDefaultImpl
2023-01-15T00:14:39,924  INFO QSimProvider:134 Added DepartureHandler class org.matsim.core.mobsim.qsim.qnetsimengine.VehicularDepartureHandler
2023-01-15T00:14:39,927  INFO QSimProvider:122 Added MobsimEngine class org.matsim.core.mobsim.qsim.qnetsimengine.QNetsimEngineWithThreadpool
2023-01-15T00:14:39,928  INFO QSimProvider:122 Added MobsimEngine class org.matsim.core.mobsim.qsim.DefaultTeleportationEngine
2023-01-15T00:14:39,933  INFO QSimProvider:134 Added DepartureHandler class org.matsim.core.mobsim.qsim.DefaultTeleportationEngine
2023-01-15T00:14:39,934  INFO QSimProvider:140 Added AgentSource class org.matsim.core.mobsim.qsim.agents.PopulationAgentSource
2023-01-15T00:14:39,937  INFO MobsimListenerManager:49 calling addQueueSimulationListener
2023-01-15T00:14:39,938  INFO MobsimListenerManager:53   assigned class org.matsim.core.mobsim.framework.listeners.MobsimListener to interface org.matsim.core.mobsim.qsim.messagequeueengine.MessageQueueEngine
2023-01-15T00:14:39,938  INFO MobsimListenerManager:53   assigned class org.matsim.core.mobsim.framework.listeners.MobsimListener to interface org.matsim.core.mobsim.framework.listeners.MobsimBeforeSimStepListener
2023-01-15T00:14:39,939  INFO MobsimListenerManager:53   assigned class org.matsim.core.mobsim.framework.listeners.MobsimListener to interface org.matsim.core.mobsim.framework.listeners.MobsimListener
2023-01-15T00:14:39,940  INFO QSimProvider:146 Added MobsimListener class org.matsim.core.mobsim.qsim.messagequeueengine.MessageQueueEngine
2023-01-15T00:14:39,955  INFO PopulationUtils:1145 adding scenario element for allpersons container
2023-01-15T00:14:39,955  INFO PopulationImpl:105  person # 1
2023-01-15T00:14:39,956  INFO PopulationImpl:105  person # 4
2023-01-15T00:14:39,959  INFO PopulationImpl:105  person # 16
2023-01-15T00:14:39,962  INFO PopulationImpl:105  person # 64
2023-01-15T00:14:39,967  INFO PopulationImpl:105  person # 256
2023-01-15T00:14:39,971  INFO VehicleUtils:327 adding scenario element for allvehicles container
2023-01-15T00:14:39,971  INFO Counter:69 [VehiclesImpl] added vehicle # 1
2023-01-15T00:14:39,972  INFO Counter:69 [VehiclesImpl] added vehicle # 2
2023-01-15T00:14:39,973  INFO Counter:69 [VehiclesImpl] added vehicle # 4
2023-01-15T00:14:39,976  INFO Counter:69 [VehiclesImpl] added vehicle # 8
2023-01-15T00:14:39,977  INFO Counter:69 [VehiclesImpl] added vehicle # 16
2023-01-15T00:14:39,985  INFO Counter:69 [VehiclesImpl] added vehicle # 32
2023-01-15T00:14:39,986  INFO Counter:69 [VehiclesImpl] added vehicle # 64
2023-01-15T00:14:39,987  INFO Counter:69 [VehiclesImpl] added vehicle # 128
2023-01-15T00:14:39,990  INFO Counter:69 [VehiclesImpl] added vehicle # 256
2023-01-15T00:14:40,005  INFO AbstractQNetsimEngine:427 Assigned 169 nodes and 343 links to QSimEngineRunner #0
2023-01-15T00:14:40,012  INFO EventsManagerImpl:137  event # 1
2023-01-15T00:14:40,021  INFO EventsManagerImpl:137  event # 4
2023-01-15T00:14:40,022  INFO EventsManagerImpl:137  event # 16
2023-01-15T00:14:40,026  INFO EventsManagerImpl:137  event # 64
2023-01-15T00:14:40,032  INFO AbstractQNetsimEngine:365 SIMULATION (QNetsimEngine) AT 06:00:00 : #links=4 #nodes=4
2023-01-15T00:14:40,044  INFO QSim:553 SIMULATION (NEW QSim) AT 06:00:00 : #Veh=500 lost=0 simT=0.0s realT=0s; (s/r): 0.0
2023-01-15T00:14:40,069  INFO EventsManagerImpl:137  event # 256
2023-01-15T00:14:40,129  INFO EventsManagerImpl:137  event # 1024
2023-01-15T00:14:40,270  INFO EventsManagerImpl:137  event # 4096
2023-01-15T00:14:40,664  INFO EventsManagerImpl:137  event # 16384
2023-01-15T00:14:40,762  INFO AbstractQNetsimEngine:365 SIMULATION (QNetsimEngine) AT 07:00:00 : #links=26 #nodes=5
2023-01-15T00:14:40,763  INFO QSim:553 SIMULATION (NEW QSim) AT 07:00:00 : #Veh=500 lost=0 simT=3600.0s realT=0s; (s/r): Infinity
2023-01-15T00:14:41,128  INFO AbstractQNetsimEngine:365 SIMULATION (QNetsimEngine) AT 08:00:00 : #links=0 #nodes=0
2023-01-15T00:14:41,132  INFO QSim:553 SIMULATION (NEW QSim) AT 08:00:00 : #Veh=500 lost=0 simT=7200.0s realT=1s; (s/r): 7200.0
2023-01-15T00:14:41,447  INFO AbstractQNetsimEngine:365 SIMULATION (QNetsimEngine) AT 09:00:00 : #links=0 #nodes=0
2023-01-15T00:14:41,447  INFO QSim:553 SIMULATION (NEW QSim) AT 09:00:00 : #Veh=500 lost=0 simT=10800.0s realT=1s; (s/r): 10800.0
2023-01-15T00:14:41,730  INFO AbstractQNetsimEngine:365 SIMULATION (QNetsimEngine) AT 10:00:00 : #links=0 #nodes=0
2023-01-15T00:14:41,731  INFO QSim:553 SIMULATION (NEW QSim) AT 10:00:00 : #Veh=500 lost=0 simT=14400.0s realT=1s; (s/r): 14400.0
2023-01-15T00:14:42,178  INFO AbstractQNetsimEngine:365 SIMULATION (QNetsimEngine) AT 11:00:00 : #links=53 #nodes=12
2023-01-15T00:14:42,178  INFO QSim:553 SIMULATION (NEW QSim) AT 11:00:00 : #Veh=139 lost=0 simT=18000.0s realT=2s; (s/r): 9000.0
2023-01-15T00:14:42,276  INFO AbstractController$9:234 ### ITERATION 0 fires after mobsim event
2023-01-15T00:14:42,277  INFO ControlerListenerManagerImpl:248 calling notifyAfterMobsim on org.matsim.analysis.LegTimesControlerListener
2023-01-15T00:14:42,278  INFO Gbl:191 Thread performance: Thread=class org.matsim.core.events.SimStepParallelEventsManagerImpl$ProcessEventsRunnable0  cpu-time=0.828125sec
2023-01-15T00:14:42,288  INFO LegTimesControlerListener:50 [0] average trip (probably: leg) duration is: 346 seconds = 00:05:46
2023-01-15T00:14:42,288  INFO ControlerListenerManagerImpl:248 calling notifyAfterMobsim on org.matsim.core.events.MobsimScopeEventHandling
2023-01-15T00:14:42,291  INFO ControlerListenerManagerImpl:248 calling notifyAfterMobsim on org.matsim.core.scoring.EventsToActivities$1
2023-01-15T00:14:42,295  INFO ControlerListenerManagerImpl:251 [it.0] all ControlerAfterMobsimListeners called.
2023-01-15T00:14:42,296  INFO AbstractController$4:159 ### ITERATION 0 fires scoring event
2023-01-15T00:14:42,296  INFO ControlerListenerManagerImpl:183 calling notifyScoring on org.matsim.core.scoring.PlansScoringImpl
2023-01-15T00:14:42,303  INFO NewScoreAssignerImpl:57 it: 0 msaStart: null
2023-01-15T00:14:42,304  INFO ControlerListenerManagerImpl:194 [it.0] all ControlerScoringListeners called.
2023-01-15T00:14:42,304  INFO AbstractController$5:167 ### ITERATION 0 fires iteration end event
2023-01-15T00:14:42,306  INFO ControlerListenerManagerImpl:160 calling notifyIterationEnds on org.matsim.core.controler.corelisteners.EventsHandlingImpl
2023-01-15T00:14:42,308  INFO EventsManagerImpl:181 removing Event-Handler: org.matsim.core.events.algorithms.EventWriterXML
2023-01-15T00:14:42,308  INFO EventsManagerImpl:181 removing Event-Handler: org.matsim.core.events.algorithms.EventWriterXML
2023-01-15T00:14:42,310  INFO ControlerListenerManagerImpl:160 calling notifyIterationEnds on org.matsim.core.scoring.PlansScoringImpl
2023-01-15T00:14:42,312  INFO ControlerListenerManagerImpl:167 calling notifyIterationEnds on org.matsim.counts.CountsControlerListener
2023-01-15T00:14:42,312  INFO ControlerListenerManagerImpl:167 calling notifyIterationEnds on org.matsim.analysis.ModeStatsControlerListener
2023-01-15T00:14:42,316  INFO ModeStatsControlerListener:144 Mode shares over all 1000.0 trips found. MainModeIdentifier: class org.matsim.core.router.RoutingModeMainModeIdentifier
2023-01-15T00:14:42,316  INFO ModeStatsControlerListener:151 -- mode share of mode car = 1.0
2023-01-15T00:14:42,320  INFO ControlerListenerManagerImpl:167 calling notifyIterationEnds on org.matsim.analysis.ScoreStatsControlerListener
2023-01-15T00:14:42,322  INFO ScoreStatsControlerListener:181 -- avg. score of the executed plan of each agent: 116.55222691503263
2023-01-15T00:14:42,322  INFO ScoreStatsControlerListener:182 -- avg. score of the worst plan of each agent: 116.55222691503263
2023-01-15T00:14:42,323  INFO ScoreStatsControlerListener:183 -- avg. of the avg. plan score per agent: 116.55222691503263
2023-01-15T00:14:42,323  INFO ScoreStatsControlerListener:184 -- avg. score of the best plan of each agent: 116.55222691503263
2023-01-15T00:14:42,333  INFO ControlerListenerManagerImpl:167 calling notifyIterationEnds on org.matsim.analysis.IterationTravelStatsControlerListener
2023-01-15T00:14:42,470  INFO TravelDistanceStats:143 -- average leg distance per plan (executed plans only): 5090.054855959251 meters
2023-01-15T00:14:42,470  INFO TravelDistanceStats:144 average leg distance per Person (executed plans only): 10180.109711918501 meters (statistic on all 1000 legs which have a finite distance)
2023-01-15T00:14:42,472  INFO TravelDistanceStats:145 -- average trip distance per plan (executed plans only): 5090.054855959251 meters
2023-01-15T00:14:42,476  INFO TravelDistanceStats:146 average trip distance per Person (executed plans only): 10180.109711918501 meters (statistic on all 1000 trips which have a finite distance)
2023-01-15T00:14:42,477  INFO TravelDistanceStats:147 (TravelDistanceStats takes an average over all legs where the simulation reports travelled (network) distances
2023-01-15T00:14:42,478  INFO TravelDistanceStats:148 (and teleported legs whose route contains a distance.)
2023-01-15T00:14:46,633  INFO ControlerListenerManagerImpl:167 calling notifyIterationEnds on org.matsim.analysis.LegHistogramListener
2023-01-15T00:14:46,647  INFO LegHistogramListener:72 number of legs:	1000	100%
2023-01-15T00:14:46,650  INFO LegHistogramListener:79 number of car legs:	1000	100.0%
2023-01-15T00:14:46,989  INFO ControlerListenerManagerImpl:167 calling notifyIterationEnds on org.matsim.analysis.LinkStatsControlerListener
2023-01-15T00:14:46,990  INFO ControlerListenerManagerImpl:171 [it.0] all ControlerIterationEndsListeners called.
2023-01-15T00:14:47,146  INFO AbstractController:181 ### ITERATION 0 ENDS
2023-01-15T00:14:47,147  INFO AbstractController:182 ###################################################
2023-01-15T00:14:47,149  INFO AbstractController:133 ###################################################
2023-01-15T00:14:47,152  INFO AbstractController:134 ### ITERATION 1 BEGINS
2023-01-15T00:14:47,153  INFO ControlerListenerManagerImpl:145 calling notifyIterationStarts on org.matsim.analysis.LegHistogramListener
2023-01-15T00:14:47,154  INFO ControlerListenerManagerImpl:145 calling notifyIterationStarts on org.matsim.analysis.LinkStatsControlerListener
2023-01-15T00:14:47,155  INFO ControlerListenerManagerImpl:145 calling notifyIterationStarts on org.matsim.core.replanning.ReplanningContextImpl
2023-01-15T00:14:47,155  INFO ControlerListenerManagerImpl:145 calling notifyIterationStarts on org.matsim.core.scoring.ScoringFunctionsForPopulation$$Lambda$212/0x0000000800f1cc20
2023-01-15T00:14:47,162  INFO ControlerListenerManagerImpl:145 calling notifyIterationStarts on org.matsim.core.scoring.ExperiencedPlansServiceImpl$1
2023-01-15T00:14:47,162  INFO ControlerListenerManagerImpl:148 [it.1] all ControlerIterationStartsListeners called.
2023-01-15T00:14:47,164  INFO ControlerListenerManagerImpl:205 calling notifyReplanning on org.matsim.core.controler.corelisteners.PlansReplanningImpl
2023-01-15T00:14:47,167  INFO RandomizingTimeDistanceTravelDisutilityFactory:85  sigma: 3.0; resulting normalization: 0.011108996538242306
2023-01-15T00:14:47,167  INFO RandomizingTimeDistanceTravelDisutilityFactory:85  sigma: 3.0; resulting normalization: 0.011108996538242306
2023-01-15T00:14:47,173  INFO GenericPlanStrategyImpl:125 Plan-Strategy finished, 440 plans handled. Strategy: BestPlanSelector
2023-01-15T00:14:47,174  INFO AbstractMultithreadedModule:141 [PlanRouter] starting 2 threads, handling 60 plans
2023-01-15T00:14:47,184  INFO Counter:69 [PlanRouter] handled plan # 1
2023-01-15T00:14:47,184  INFO Counter:69 [PlanRouter] handled plan # 2
2023-01-15T00:14:47,186  INFO Counter:69 [PlanRouter] handled plan # 4
2023-01-15T00:14:47,188  INFO Counter:69 [PlanRouter] handled plan # 8
2023-01-15T00:14:47,190  INFO Counter:69 [PlanRouter] handled plan # 16
2023-01-15T00:14:47,196  INFO Counter:69 [PlanRouter] handled plan # 32
2023-01-15T00:14:47,205  INFO AbstractMultithreadedModule:156 [PlanRouter] all 2 threads finished.
2023-01-15T00:14:47,206  INFO GenericPlanStrategyImpl:125 Plan-Strategy finished, 60 plans handled. Strategy: RandomPlanSelector_ReRoute
2023-01-15T00:14:47,209  INFO ControlerListenerManagerImpl:213 [it.1] all ControlerReplanningListeners called.
2023-01-15T00:14:47,212  INFO ControlerListenerManagerImpl:224 calling notifyBeforeMobsim on org.matsim.core.controler.corelisteners.EventsHandlingImpl
2023-01-15T00:14:47,214  INFO EventsManagerImpl:190 resetting Event-Handlers
2023-01-15T00:14:47,215  INFO EventsManagerImpl:197   org.matsim.core.trafficmonitoring.TravelTimeCalculator
2023-01-15T00:14:47,216  INFO EventsManagerImpl:197   org.matsim.core.trafficmonitoring.TravelTimeCalculator
2023-01-15T00:14:47,218  INFO EventsManagerImpl:197   org.matsim.analysis.VolumesAnalyzer
2023-01-15T00:14:47,222  INFO EventsManagerImpl:197   org.matsim.core.scoring.ScoringFunctionsForPopulation
2023-01-15T00:14:47,223  INFO EventsManagerImpl:197   org.matsim.analysis.LegHistogram
2023-01-15T00:14:47,227  INFO EventsManagerImpl:197   org.matsim.analysis.CalcLegTimes
[...]
2023-01-15T00:20:27,788  INFO EventsManagerImpl:166   org.matsim.core.events.algorithms.EventWriter
2023-01-15T00:20:27,788  INFO EventsManagerImpl:166   org.matsim.core.events.handler.BasicEventHandler
2023-01-15T00:20:27,788  INFO EventsManagerImpl:227     > org.matsim.api.core.v01.events.Event
2023-01-15T00:20:27,788  INFO EventsManagerImpl:176 
2023-01-15T00:20:27,789  INFO EventsManagerImpl:160 adding Event-Handler: org.matsim.core.events.algorithms.EventWriterXML
2023-01-15T00:20:27,789  INFO EventsManagerImpl:166   org.matsim.core.events.algorithms.EventWriter
2023-01-15T00:20:27,789  INFO EventsManagerImpl:166   org.matsim.core.events.handler.BasicEventHandler
2023-01-15T00:20:27,789  INFO EventsManagerImpl:227     > org.matsim.api.core.v01.events.Event
2023-01-15T00:20:27,789  INFO EventsManagerImpl:176 
2023-01-15T00:20:27,789  INFO ControlerListenerManagerImpl:224 calling notifyBeforeMobsim on org.matsim.core.controler.corelisteners.PlansDumpingImpl
2023-01-15T00:20:27,789  INFO PlansDumpingImpl:76 dumping plans...
2023-01-15T00:20:27,792  INFO Counter:69 [PopulationWriter] dumped person # 1
2023-01-15T00:20:27,793  INFO Counter:69 [PopulationWriter] dumped person # 2
2023-01-15T00:20:27,793  INFO Counter:69 [PopulationWriter] dumped person # 4
2023-01-15T00:20:27,794  INFO Counter:69 [PopulationWriter] dumped person # 8
2023-01-15T00:20:27,795  INFO Counter:69 [PopulationWriter] dumped person # 16
2023-01-15T00:20:27,798  INFO Counter:69 [PopulationWriter] dumped person # 32
2023-01-15T00:20:27,802  INFO Counter:69 [PopulationWriter] dumped person # 64
2023-01-15T00:20:27,811  INFO Counter:69 [PopulationWriter] dumped person # 128
2023-01-15T00:20:27,858  INFO Counter:69 [PopulationWriter] dumped person # 256
2023-01-15T00:20:27,901  INFO PopulationWriter:144 Population written to: ./output/ITERS/it.100/100.plans.xml.gz
2023-01-15T00:20:27,903  INFO Counter:74 [PopulationWriter] dumped person # 500
2023-01-15T00:20:27,903  INFO PlansDumpingImpl:93 finished plans dump.
2023-01-15T00:20:27,903  INFO ControlerListenerManagerImpl:229 calling notifyBeforeMobsim on org.matsim.core.population.VspPlansCleaner
2023-01-15T00:20:27,904  INFO ControlerListenerManagerImpl:232 [it.100] all ControlerBeforeMobsimListeners called.
2023-01-15T00:20:27,904  INFO PrepareForMobsimImpl:86 Network seems to be multimodal. Create car-only network which is handed over to PersonPrepareForSim.
2023-01-15T00:20:27,904  INFO NetworkImpl:163  node # 1
2023-01-15T00:20:27,904  INFO NetworkImpl:163  node # 4
2023-01-15T00:20:27,904  INFO NetworkImpl:163  node # 16
2023-01-15T00:20:27,904  INFO NetworkImpl:163  node # 64
2023-01-15T00:20:27,905  INFO NetworkImpl:159  link # 1
2023-01-15T00:20:27,905  INFO NetworkImpl:159  link # 4
2023-01-15T00:20:27,905  INFO NetworkImpl:159  link # 16
2023-01-15T00:20:27,905  INFO NetworkImpl:159  link # 64
2023-01-15T00:20:27,906  INFO NetworkImpl:159  link # 256
2023-01-15T00:20:27,907  INFO Counter:69 [PersonPrepareForSim] handled person # 1
2023-01-15T00:20:27,907  INFO Counter:69 [PersonPrepareForSim] handled person # 2
2023-01-15T00:20:27,907  INFO Counter:69 [PersonPrepareForSim] handled person # 4
2023-01-15T00:20:27,907  INFO Counter:69 [PersonPrepareForSim] handled person # 8
2023-01-15T00:20:27,907  INFO Counter:69 [PersonPrepareForSim] handled person # 16
2023-01-15T00:20:27,908  INFO Counter:69 [PersonPrepareForSim] handled person # 32
2023-01-15T00:20:27,908  INFO Counter:69 [PersonPrepareForSim] handled person # 64
2023-01-15T00:20:27,908  INFO Counter:69 [PersonPrepareForSim] handled person # 128
2023-01-15T00:20:27,909  INFO Counter:69 [PersonPrepareForSim] handled person # 256
2023-01-15T00:20:27,911  INFO Counter:74 [PersonPrepareForSim] handled person # 500
2023-01-15T00:20:27,919  INFO MobsimListenerManager:49 calling addQueueSimulationListener
2023-01-15T00:20:27,919  INFO MobsimListenerManager:53   assigned class org.matsim.core.mobsim.framework.listeners.MobsimListener to interface org.matsim.core.mobsim.framework.listeners.MobsimInitializedListener
2023-01-15T00:20:27,920  INFO MobsimListenerManager:53   assigned class org.matsim.core.mobsim.framework.listeners.MobsimListener to interface org.matsim.core.mobsim.framework.listeners.MobsimBeforeCleanupListener
2023-01-15T00:20:27,920  INFO MobsimListenerManager:53   assigned class org.matsim.core.mobsim.framework.listeners.MobsimListener to interface org.matsim.vis.snapshotwriters.SnapshotWriterManager
2023-01-15T00:20:27,920  INFO MobsimListenerManager:53   assigned class org.matsim.core.mobsim.framework.listeners.MobsimListener to interface org.matsim.core.mobsim.framework.listeners.MobsimListener
2023-01-15T00:20:27,920  INFO MobsimListenerManager:53   assigned class org.matsim.core.mobsim.framework.listeners.MobsimListener to interface org.matsim.core.mobsim.framework.listeners.MobsimAfterSimStepListener
2023-01-15T00:20:27,921  INFO QSimProvider:122 Added MobsimEngine class org.matsim.core.mobsim.qsim.ActivityEngineDefaultImpl
2023-01-15T00:20:27,921  INFO QSimProvider:128 Added Activityhandler class org.matsim.core.mobsim.qsim.ActivityEngineDefaultImpl
2023-01-15T00:20:27,921  INFO QSimProvider:134 Added DepartureHandler class org.matsim.core.mobsim.qsim.qnetsimengine.VehicularDepartureHandler
2023-01-15T00:20:27,922  INFO QSimProvider:122 Added MobsimEngine class org.matsim.core.mobsim.qsim.qnetsimengine.QNetsimEngineWithThreadpool
2023-01-15T00:20:27,922  INFO QSimProvider:122 Added MobsimEngine class org.matsim.core.mobsim.qsim.DefaultTeleportationEngine
2023-01-15T00:20:27,922  INFO QSimProvider:134 Added DepartureHandler class org.matsim.core.mobsim.qsim.DefaultTeleportationEngine
2023-01-15T00:20:27,922  INFO QSimProvider:140 Added AgentSource class org.matsim.core.mobsim.qsim.agents.PopulationAgentSource
2023-01-15T00:20:27,923  INFO MobsimListenerManager:49 calling addQueueSimulationListener
2023-01-15T00:20:27,923  INFO MobsimListenerManager:53   assigned class org.matsim.core.mobsim.framework.listeners.MobsimListener to interface org.matsim.core.mobsim.qsim.messagequeueengine.MessageQueueEngine
2023-01-15T00:20:27,923  INFO MobsimListenerManager:53   assigned class org.matsim.core.mobsim.framework.listeners.MobsimListener to interface org.matsim.core.mobsim.framework.listeners.MobsimBeforeSimStepListener
2023-01-15T00:20:27,923  INFO MobsimListenerManager:53   assigned class org.matsim.core.mobsim.framework.listeners.MobsimListener to interface org.matsim.core.mobsim.framework.listeners.MobsimListener
2023-01-15T00:20:27,923  INFO QSimProvider:146 Added MobsimListener class org.matsim.core.mobsim.qsim.messagequeueengine.MessageQueueEngine
2023-01-15T00:20:27,926  INFO AbstractQNetsimEngine:427 Assigned 169 nodes and 343 links to QSimEngineRunner #0
2023-01-15T00:20:27,927  INFO AbstractQNetsimEngine:365 SIMULATION (QNetsimEngine) AT 06:00:00 : #links=4 #nodes=4
2023-01-15T00:20:27,927  INFO QSim:553 SIMULATION (NEW QSim) AT 06:00:00 : #Veh=500 lost=0 simT=0.0s realT=0s; (s/r): 0.0
2023-01-15T00:20:28,521  INFO AbstractQNetsimEngine:365 SIMULATION (QNetsimEngine) AT 07:00:00 : #links=25 #nodes=5
2023-01-15T00:20:28,521  INFO QSim:553 SIMULATION (NEW QSim) AT 07:00:00 : #Veh=500 lost=0 simT=3600.0s realT=0s; (s/r): Infinity
2023-01-15T00:20:28,837  INFO AbstractQNetsimEngine:365 SIMULATION (QNetsimEngine) AT 08:00:00 : #links=0 #nodes=0
2023-01-15T00:20:28,837  INFO QSim:553 SIMULATION (NEW QSim) AT 08:00:00 : #Veh=500 lost=0 simT=7200.0s realT=0s; (s/r): Infinity
2023-01-15T00:20:29,117  INFO AbstractQNetsimEngine:365 SIMULATION (QNetsimEngine) AT 09:00:00 : #links=0 #nodes=0
2023-01-15T00:20:29,117  INFO QSim:553 SIMULATION (NEW QSim) AT 09:00:00 : #Veh=500 lost=0 simT=10800.0s realT=1s; (s/r): 10800.0
2023-01-15T00:20:29,389  INFO AbstractQNetsimEngine:365 SIMULATION (QNetsimEngine) AT 10:00:00 : #links=0 #nodes=0
2023-01-15T00:20:29,389  INFO QSim:553 SIMULATION (NEW QSim) AT 10:00:00 : #Veh=500 lost=0 simT=14400.0s realT=1s; (s/r): 14400.0
2023-01-15T00:20:29,756  INFO AbstractQNetsimEngine:365 SIMULATION (QNetsimEngine) AT 11:00:00 : #links=54 #nodes=11
2023-01-15T00:20:29,756  INFO QSim:553 SIMULATION (NEW QSim) AT 11:00:00 : #Veh=139 lost=0 simT=18000.0s realT=1s; (s/r): 18000.0
2023-01-15T00:20:29,831  INFO AbstractController$9:234 ### ITERATION 100 fires after mobsim event
2023-01-15T00:20:29,831  INFO Gbl:191 Thread performance: Thread=class org.matsim.core.events.SimStepParallelEventsManagerImpl$ProcessEventsRunnable0  cpu-time=0.53125sec
2023-01-15T00:20:29,831  INFO ControlerListenerManagerImpl:248 calling notifyAfterMobsim on org.matsim.analysis.LegTimesControlerListener
2023-01-15T00:20:29,833  INFO LegTimesControlerListener:50 [100] average trip (probably: leg) duration is: 346 seconds = 00:05:46
2023-01-15T00:20:29,834  INFO ControlerListenerManagerImpl:248 calling notifyAfterMobsim on org.matsim.core.events.MobsimScopeEventHandling
2023-01-15T00:20:29,834  INFO ControlerListenerManagerImpl:248 calling notifyAfterMobsim on org.matsim.core.scoring.EventsToActivities$1
2023-01-15T00:20:29,835  INFO ControlerListenerManagerImpl:251 [it.100] all ControlerAfterMobsimListeners called.
2023-01-15T00:20:29,835  INFO AbstractController$4:159 ### ITERATION 100 fires scoring event
2023-01-15T00:20:29,835  INFO ControlerListenerManagerImpl:183 calling notifyScoring on org.matsim.core.scoring.PlansScoringImpl
2023-01-15T00:20:29,836  INFO NewScoreAssignerImpl:57 it: 100 msaStart: null
2023-01-15T00:20:29,836  INFO ControlerListenerManagerImpl:194 [it.100] all ControlerScoringListeners called.
2023-01-15T00:20:29,836  INFO AbstractController$5:167 ### ITERATION 100 fires iteration end event
2023-01-15T00:20:29,836  INFO ControlerListenerManagerImpl:160 calling notifyIterationEnds on org.matsim.core.controler.corelisteners.EventsHandlingImpl
2023-01-15T00:20:29,837  INFO EventsManagerImpl:181 removing Event-Handler: org.matsim.core.events.algorithms.EventWriterXML
2023-01-15T00:20:29,838  INFO EventsManagerImpl:181 removing Event-Handler: org.matsim.core.events.algorithms.EventWriterXML
2023-01-15T00:20:29,838  INFO ControlerListenerManagerImpl:160 calling notifyIterationEnds on org.matsim.core.scoring.PlansScoringImpl
2023-01-15T00:20:29,839  INFO ControlerListenerManagerImpl:167 calling notifyIterationEnds on org.matsim.counts.CountsControlerListener
2023-01-15T00:20:29,839  INFO CountSimComparisonTableWriter:93 Writing CountsSimComparison to ./output/ITERS/it.100/100.countscompare.txt
2023-01-15T00:20:29,840  INFO CountSimComparisonTableWriter:134 Writing 'average weekday traffic volume' to ./output/ITERS/it.100/100.countscompareAWTV.txt
2023-01-15T00:20:29,841  INFO ControlerListenerManagerImpl:167 calling notifyIterationEnds on org.matsim.analysis.ModeStatsControlerListener
2023-01-15T00:20:29,842  INFO ModeStatsControlerListener:144 Mode shares over all 1000.0 trips found. MainModeIdentifier: class org.matsim.core.router.RoutingModeMainModeIdentifier
2023-01-15T00:20:29,842  INFO ModeStatsControlerListener:151 -- mode share of mode car = 1.0
2023-01-15T00:20:30,088  INFO ControlerListenerManagerImpl:167 calling notifyIterationEnds on org.matsim.analysis.ScoreStatsControlerListener
2023-01-15T00:20:30,088  INFO ScoreStatsControlerListener:181 -- avg. score of the executed plan of each agent: 116.55294604033263
2023-01-15T00:20:30,088  INFO ScoreStatsControlerListener:182 -- avg. score of the worst plan of each agent: 116.55197817668959
2023-01-15T00:20:30,089  INFO ScoreStatsControlerListener:183 -- avg. of the avg. plan score per agent: 116.55237674924457
2023-01-15T00:20:30,089  INFO ScoreStatsControlerListener:184 -- avg. score of the best plan of each agent: 116.55302993777237
2023-01-15T00:20:30,177  INFO ControlerListenerManagerImpl:167 calling notifyIterationEnds on org.matsim.analysis.IterationTravelStatsControlerListener
2023-01-15T00:20:30,178  INFO TravelDistanceStats:143 -- average leg distance per plan (executed plans only): 5089.378003854381 meters
2023-01-15T00:20:30,178  INFO TravelDistanceStats:144 average leg distance per Person (executed plans only): 10178.756007708762 meters (statistic on all 1000 legs which have a finite distance)
2023-01-15T00:20:30,178  INFO TravelDistanceStats:145 -- average trip distance per plan (executed plans only): 5089.378003854381 meters
2023-01-15T00:20:30,179  INFO TravelDistanceStats:146 average trip distance per Person (executed plans only): 10178.756007708762 meters (statistic on all 1000 trips which have a finite distance)
2023-01-15T00:20:30,179  INFO TravelDistanceStats:147 (TravelDistanceStats takes an average over all legs where the simulation reports travelled (network) distances
2023-01-15T00:20:30,179  INFO TravelDistanceStats:148 (and teleported legs whose route contains a distance.)
2023-01-15T00:20:30,577  INFO ControlerListenerManagerImpl:167 calling notifyIterationEnds on org.matsim.analysis.LegHistogramListener
2023-01-15T00:20:30,582  INFO LegHistogramListener:72 number of legs:	1000	100%
2023-01-15T00:20:30,583  INFO LegHistogramListener:79 number of car legs:	1000	100.0%
2023-01-15T00:20:30,925  INFO ControlerListenerManagerImpl:167 calling notifyIterationEnds on org.matsim.analysis.LinkStatsControlerListener
2023-01-15T00:20:30,950  INFO ControlerListenerManagerImpl:171 [it.100] all ControlerIterationEndsListeners called.
2023-01-15T00:20:31,114  INFO AbstractController:181 ### ITERATION 100 ENDS
2023-01-15T00:20:31,114  INFO AbstractController:182 ###################################################
2023-01-15T00:20:31,114  INFO MatsimRuntimeModifications:79 S H U T D O W N   ---   start shutdown.
2023-01-15T00:20:31,116  INFO ControlerListenerManagerImpl:121 calling notifyShutdown on org.matsim.core.controler.corelisteners.EventsHandlingImpl
2023-01-15T00:20:31,116  INFO ControlerListenerManagerImpl:121 calling notifyShutdown on org.matsim.core.controler.corelisteners.DumpDataAtEndImpl
2023-01-15T00:20:31,148  INFO Counter:69 [PopulationWriter] dumped person # 1
2023-01-15T00:20:31,148  INFO Counter:69 [PopulationWriter] dumped person # 2
2023-01-15T00:20:31,148  INFO Counter:69 [PopulationWriter] dumped person # 4
2023-01-15T00:20:31,149  INFO Counter:69 [PopulationWriter] dumped person # 8
2023-01-15T00:20:31,150  INFO Counter:69 [PopulationWriter] dumped person # 16
2023-01-15T00:20:31,152  INFO Counter:69 [PopulationWriter] dumped person # 32
2023-01-15T00:20:31,159  INFO Counter:69 [PopulationWriter] dumped person # 64
2023-01-15T00:20:31,170  INFO Counter:69 [PopulationWriter] dumped person # 128
2023-01-15T00:20:31,190  INFO Counter:69 [PopulationWriter] dumped person # 256
2023-01-15T00:20:31,237  INFO PopulationWriter:144 Population written to: ./output/output_plans.xml.gz
2023-01-15T00:20:31,239  INFO Counter:74 [PopulationWriter] dumped person # 500
2023-01-15T00:20:31,251  INFO NetworkWriter:69 Writing network to file: ./output/output_network.xml.gz...
2023-01-15T00:20:31,362  INFO NetworkWriter:72 done.
2023-01-15T00:20:31,423  INFO Config:601 setting context to [file:/C:/Users/ASUS/Desktop/ACADEMIC%20SEM%2008/FYP/MATSim/matsim-14.0/]
2023-01-15T00:20:31,435  INFO Config:601 setting context to [file:/C:/Users/ASUS/Desktop/ACADEMIC%20SEM%2008/FYP/MATSim/matsim-14.0/]
2023-01-15T00:20:31,445  INFO Config:601 setting context to [file:/C:/Users/ASUS/Desktop/ACADEMIC%20SEM%2008/FYP/MATSim/matsim-14.0/]
2023-01-15T00:20:31,454  INFO Config:601 setting context to [file:/C:/Users/ASUS/Desktop/ACADEMIC%20SEM%2008/FYP/MATSim/matsim-14.0/]
2023-01-15T00:20:31,461  INFO Config:601 setting context to [file:/C:/Users/ASUS/Desktop/ACADEMIC%20SEM%2008/FYP/MATSim/matsim-14.0/]
2023-01-15T00:20:31,482  INFO Config:601 setting context to [file:/C:/Users/ASUS/Desktop/ACADEMIC%20SEM%2008/FYP/MATSim/matsim-14.0/]
2023-01-15T00:20:31,495  INFO Config:601 setting context to [file:/C:/Users/ASUS/Desktop/ACADEMIC%20SEM%2008/FYP/MATSim/matsim-14.0/]
2023-01-15T00:20:31,507  INFO Config:601 setting context to [file:/C:/Users/ASUS/Desktop/ACADEMIC%20SEM%2008/FYP/MATSim/matsim-14.0/]
2023-01-15T00:20:31,512  INFO Config:601 setting context to [file:/C:/Users/ASUS/Desktop/ACADEMIC%20SEM%2008/FYP/MATSim/matsim-14.0/]
2023-01-15T00:20:31,517  INFO Config:601 setting context to [file:/C:/Users/ASUS/Desktop/ACADEMIC%20SEM%2008/FYP/MATSim/matsim-14.0/]
2023-01-15T00:20:31,522  INFO Config:601 setting context to [file:/C:/Users/ASUS/Desktop/ACADEMIC%20SEM%2008/FYP/MATSim/matsim-14.0/]
2023-01-15T00:20:31,527  INFO Config:601 setting context to [file:/C:/Users/ASUS/Desktop/ACADEMIC%20SEM%2008/FYP/MATSim/matsim-14.0/]
2023-01-15T00:20:31,534  INFO Config:601 setting context to [file:/C:/Users/ASUS/Desktop/ACADEMIC%20SEM%2008/FYP/MATSim/matsim-14.0/]
2023-01-15T00:20:31,542  INFO Config:601 setting context to [file:/C:/Users/ASUS/Desktop/ACADEMIC%20SEM%2008/FYP/MATSim/matsim-14.0/]
2023-01-15T00:20:31,564  INFO Config:601 setting context to [file:/C:/Users/ASUS/Desktop/ACADEMIC%20SEM%2008/FYP/MATSim/matsim-14.0/]
2023-01-15T00:20:31,569  INFO Config:601 setting context to [file:/C:/Users/ASUS/Desktop/ACADEMIC%20SEM%2008/FYP/MATSim/matsim-14.0/]
2023-01-15T00:20:31,578  INFO Config:601 setting context to [file:/C:/Users/ASUS/Desktop/ACADEMIC%20SEM%2008/FYP/MATSim/matsim-14.0/]
2023-01-15T00:20:31,584  INFO Config:601 setting context to [file:/C:/Users/ASUS/Desktop/ACADEMIC%20SEM%2008/FYP/MATSim/matsim-14.0/]
2023-01-15T00:20:31,614  INFO Config:601 setting context to [file:/C:/Users/ASUS/Desktop/ACADEMIC%20SEM%2008/FYP/MATSim/matsim-14.0/]
2023-01-15T00:20:31,618  INFO Config:601 setting context to [file:/C:/Users/ASUS/Desktop/ACADEMIC%20SEM%2008/FYP/MATSim/matsim-14.0/]
2023-01-15T00:20:31,626  INFO Config:601 setting context to [file:/C:/Users/ASUS/Desktop/ACADEMIC%20SEM%2008/FYP/MATSim/matsim-14.0/]
2023-01-15T00:20:31,631  INFO Config:601 setting context to [file:/C:/Users/ASUS/Desktop/ACADEMIC%20SEM%2008/FYP/MATSim/matsim-14.0/]
2023-01-15T00:20:31,636  INFO Config:601 setting context to [file:/C:/Users/ASUS/Desktop/ACADEMIC%20SEM%2008/FYP/MATSim/matsim-14.0/]
2023-01-15T00:20:31,639  INFO Config:601 setting context to [file:/C:/Users/ASUS/Desktop/ACADEMIC%20SEM%2008/FYP/MATSim/matsim-14.0/]
2023-01-15T00:20:31,644  INFO Config:601 setting context to [file:/C:/Users/ASUS/Desktop/ACADEMIC%20SEM%2008/FYP/MATSim/matsim-14.0/]
2023-01-15T00:20:31,648  INFO Config:601 setting context to [file:/C:/Users/ASUS/Desktop/ACADEMIC%20SEM%2008/FYP/MATSim/matsim-14.0/]
2023-01-15T00:20:31,667  INFO MatsimVehicleWriter:54 about to write vehicles to: ./output/output_vehicles.xml.gz
2023-01-15T00:20:31,667  INFO VehicleWriterV2:63 about to write vehicles to: ./output/output_vehicles.xml.gz
2023-01-15T00:20:31,744  INFO MatsimVehicleWriter:54 about to write vehicles to: ./output/output_allVehicles.xml.gz
2023-01-15T00:20:31,744  INFO VehicleWriterV2:63 about to write vehicles to: ./output/output_allVehicles.xml.gz
2023-01-15T00:20:31,757  INFO HouseholdsWriterV10:66 about to write  households to: ./output/output_households.xml.gz
2023-01-15T00:20:31,759  INFO Counter:74 [HouseholdsWriter] wrote household # 0
2023-01-15T00:20:31,844  INFO ControlerListenerManagerImpl:126 calling notifyShutdown on org.matsim.analysis.ScoreStatsControlerListener
2023-01-15T00:20:31,845  INFO ControlerListenerManagerImpl:126 calling notifyShutdown on org.matsim.analysis.IterationTravelStatsControlerListener
2023-01-15T00:20:31,848  INFO IterationTravelStatsControlerListener:108 Writing all Person and Attributes to personscsv
2023-01-15T00:20:31,857  INFO IterationTravelStatsControlerListener:152 ...done
2023-01-15T00:20:31,858  INFO ControlerListenerManagerImpl:129 all ControlerShutdownListeners called.
2023-01-15T00:20:31,858  INFO MatsimRuntimeModifications:102 S H U T D O W N   ---   shutdown completed.
2023-01-15T00:20:31,859  INFO OutputDirectoryLogging:170 closing the logfile, i.e. messages sent to the logger after this message are not written to the logfile.
